
---------- Begin Simulation Statistics ----------
final_tick                                   65695000                       # Number of ticks from beginning of simulation (restored from checkpoints and never reset)
host_inst_rate                                  39776                       # Simulator instruction rate (inst/s)
host_mem_usage                                4960704                       # Number of bytes of host memory used
host_op_rate                                    78731                       # Simulator op (including micro ops) rate (op/s)
host_seconds                                     0.84                       # Real time elapsed on the host
host_tick_rate                               78036845                       # Simulator tick rate (ticks/s)
sim_freq                                 1000000000000                       # Frequency of simulated ticks
sim_insts                                       33482                       # Number of instructions simulated
sim_ops                                         66278                       # Number of ops (including micro ops) simulated
sim_seconds                                  0.000066                       # Number of seconds simulated
sim_ticks                                    65695000                       # Number of ticks simulated
system.cpu.branchPred.BTBCorrect                    0                       # Number of correct BTB predictions (this stat may not work properly.
system.cpu.branchPred.BTBHitPct              0.000000                       # BTB Hit Percentage
system.cpu.branchPred.BTBHits                       0                       # Number of BTB hits
system.cpu.branchPred.BTBLookups                14093                       # Number of BTB lookups
system.cpu.branchPred.RASInCorrect                  2                       # Number of incorrect RAS predictions.
system.cpu.branchPred.condIncorrect              1446                       # Number of conditional branches incorrect
system.cpu.branchPred.condPredicted             13278                       # Number of conditional branches predicted
system.cpu.branchPred.indirectHits               4976                       # Number of indirect target hits.
system.cpu.branchPred.indirectLookups           14093                       # Number of indirect predictor lookups.
system.cpu.branchPred.indirectMisses             9117                       # Number of indirect misses.
system.cpu.branchPred.lookups                   16015                       # Number of BP lookups
system.cpu.branchPred.usedRAS                    1044                       # Number of times the RAS was used to get a target.
system.cpu.branchPredindirectMispredicted         1218                       # Number of mispredicted indirect branches.
system.cpu.cc_regfile_reads                     47983                       # number of cc regfile reads
system.cpu.cc_regfile_writes                    27585                       # number of cc regfile writes
system.cpu.commit.amos                              0                       # Number of atomic instructions committed
system.cpu.commit.branchMispredicts              1459                       # The number of times a branch was mispredicted
system.cpu.commit.branches                       8321                       # Number of branches committed
system.cpu.commit.bw_lim_events                  4338                       # number cycles where commit BW limit reached
system.cpu.commit.commitNonSpecStalls             135                       # The number of times commit has been forced to stall to communicate backwards
system.cpu.commit.commitSquashedInsts           36172                       # The number of squashed insts skipped by commit
system.cpu.commit.committedInsts                33482                       # Number of instructions committed
system.cpu.commit.committedOps                  66278                       # Number of ops (including micro ops) committed
system.cpu.commit.committed_per_cycle::samples        46350                       # Number of insts commited each cycle
system.cpu.commit.committed_per_cycle::mean     1.429946                       # Number of insts commited each cycle
system.cpu.commit.committed_per_cycle::stdev     2.583395                       # Number of insts commited each cycle
system.cpu.commit.committed_per_cycle::underflows            0      0.00%      0.00% # Number of insts commited each cycle
system.cpu.commit.committed_per_cycle::0        31381     67.70%     67.70% # Number of insts commited each cycle
system.cpu.commit.committed_per_cycle::1         2898      6.25%     73.96% # Number of insts commited each cycle
system.cpu.commit.committed_per_cycle::2         1673      3.61%     77.57% # Number of insts commited each cycle
system.cpu.commit.committed_per_cycle::3         2637      5.69%     83.26% # Number of insts commited each cycle
system.cpu.commit.committed_per_cycle::4         1518      3.28%     86.53% # Number of insts commited each cycle
system.cpu.commit.committed_per_cycle::5          680      1.47%     88.00% # Number of insts commited each cycle
system.cpu.commit.committed_per_cycle::6          628      1.35%     89.35% # Number of insts commited each cycle
system.cpu.commit.committed_per_cycle::7          597      1.29%     90.64% # Number of insts commited each cycle
system.cpu.commit.committed_per_cycle::8         4338      9.36%    100.00% # Number of insts commited each cycle
system.cpu.commit.committed_per_cycle::overflows            0      0.00%    100.00% # Number of insts commited each cycle
system.cpu.commit.committed_per_cycle::min_value            0                       # Number of insts commited each cycle
system.cpu.commit.committed_per_cycle::max_value            8                       # Number of insts commited each cycle
system.cpu.commit.committed_per_cycle::total        46350                       # Number of insts commited each cycle
system.cpu.commit.fp_insts                       1912                       # Number of committed floating point instructions.
system.cpu.commit.function_calls                  497                       # Number of function calls committed.
system.cpu.commit.int_insts                     64458                       # Number of committed integer instructions.
system.cpu.commit.loads                          7639                       # Number of loads committed
system.cpu.commit.membars                          40                       # Number of memory barriers committed
system.cpu.commit.op_class_0::No_OpClass          671      1.01%      1.01% # Class of committed instruction
system.cpu.commit.op_class_0::IntAlu            51204     77.26%     78.27% # Class of committed instruction
system.cpu.commit.op_class_0::IntMult              34      0.05%     78.32% # Class of committed instruction
system.cpu.commit.op_class_0::IntDiv              232      0.35%     78.67% # Class of committed instruction
system.cpu.commit.op_class_0::FloatAdd             22      0.03%     78.70% # Class of committed instruction
system.cpu.commit.op_class_0::FloatCmp              0      0.00%     78.70% # Class of committed instruction
system.cpu.commit.op_class_0::FloatCvt              0      0.00%     78.70% # Class of committed instruction
system.cpu.commit.op_class_0::FloatMult             0      0.00%     78.70% # Class of committed instruction
system.cpu.commit.op_class_0::FloatMultAcc            0      0.00%     78.70% # Class of committed instruction
system.cpu.commit.op_class_0::FloatDiv              0      0.00%     78.70% # Class of committed instruction
system.cpu.commit.op_class_0::FloatMisc             0      0.00%     78.70% # Class of committed instruction
system.cpu.commit.op_class_0::FloatSqrt             0      0.00%     78.70% # Class of committed instruction
system.cpu.commit.op_class_0::SimdAdd             512      0.77%     79.48% # Class of committed instruction
system.cpu.commit.op_class_0::SimdAddAcc            0      0.00%     79.48% # Class of committed instruction
system.cpu.commit.op_class_0::SimdAlu             136      0.21%     79.68% # Class of committed instruction
system.cpu.commit.op_class_0::SimdCmp              12      0.02%     79.70% # Class of committed instruction
system.cpu.commit.op_class_0::SimdCvt             136      0.21%     79.90% # Class of committed instruction
system.cpu.commit.op_class_0::SimdMisc            262      0.40%     80.30% # Class of committed instruction
system.cpu.commit.op_class_0::SimdMult              0      0.00%     80.30% # Class of committed instruction
system.cpu.commit.op_class_0::SimdMultAcc            0      0.00%     80.30% # Class of committed instruction
system.cpu.commit.op_class_0::SimdShift             0      0.00%     80.30% # Class of committed instruction
system.cpu.commit.op_class_0::SimdShiftAcc            0      0.00%     80.30% # Class of committed instruction
system.cpu.commit.op_class_0::SimdDiv               0      0.00%     80.30% # Class of committed instruction
system.cpu.commit.op_class_0::SimdSqrt              0      0.00%     80.30% # Class of committed instruction
system.cpu.commit.op_class_0::SimdFloatAdd            0      0.00%     80.30% # Class of committed instruction
system.cpu.commit.op_class_0::SimdFloatAlu            0      0.00%     80.30% # Class of committed instruction
system.cpu.commit.op_class_0::SimdFloatCmp            0      0.00%     80.30% # Class of committed instruction
system.cpu.commit.op_class_0::SimdFloatCvt            0      0.00%     80.30% # Class of committed instruction
system.cpu.commit.op_class_0::SimdFloatDiv            0      0.00%     80.30% # Class of committed instruction
system.cpu.commit.op_class_0::SimdFloatMisc            0      0.00%     80.30% # Class of committed instruction
system.cpu.commit.op_class_0::SimdFloatMult            0      0.00%     80.30% # Class of committed instruction
system.cpu.commit.op_class_0::SimdFloatMultAcc            0      0.00%     80.30% # Class of committed instruction
system.cpu.commit.op_class_0::SimdFloatSqrt            0      0.00%     80.30% # Class of committed instruction
system.cpu.commit.op_class_0::SimdReduceAdd            0      0.00%     80.30% # Class of committed instruction
system.cpu.commit.op_class_0::SimdReduceAlu            0      0.00%     80.30% # Class of committed instruction
system.cpu.commit.op_class_0::SimdReduceCmp            0      0.00%     80.30% # Class of committed instruction
system.cpu.commit.op_class_0::SimdFloatReduceAdd            0      0.00%     80.30% # Class of committed instruction
system.cpu.commit.op_class_0::SimdFloatReduceCmp            0      0.00%     80.30% # Class of committed instruction
system.cpu.commit.op_class_0::SimdAes               0      0.00%     80.30% # Class of committed instruction
system.cpu.commit.op_class_0::SimdAesMix            0      0.00%     80.30% # Class of committed instruction
system.cpu.commit.op_class_0::SimdSha1Hash            0      0.00%     80.30% # Class of committed instruction
system.cpu.commit.op_class_0::SimdSha1Hash2            0      0.00%     80.30% # Class of committed instruction
system.cpu.commit.op_class_0::SimdSha256Hash            0      0.00%     80.30% # Class of committed instruction
system.cpu.commit.op_class_0::SimdSha256Hash2            0      0.00%     80.30% # Class of committed instruction
system.cpu.commit.op_class_0::SimdShaSigma2            0      0.00%     80.30% # Class of committed instruction
system.cpu.commit.op_class_0::SimdShaSigma3            0      0.00%     80.30% # Class of committed instruction
system.cpu.commit.op_class_0::SimdPredAlu            0      0.00%     80.30% # Class of committed instruction
system.cpu.commit.op_class_0::MemRead            7551     11.39%     91.69% # Class of committed instruction
system.cpu.commit.op_class_0::MemWrite           4754      7.17%     98.87% # Class of committed instruction
system.cpu.commit.op_class_0::FloatMemRead           88      0.13%     99.00% # Class of committed instruction
system.cpu.commit.op_class_0::FloatMemWrite          664      1.00%    100.00% # Class of committed instruction
system.cpu.commit.op_class_0::IprAccess             0      0.00%    100.00% # Class of committed instruction
system.cpu.commit.op_class_0::InstPrefetch            0      0.00%    100.00% # Class of committed instruction
system.cpu.commit.op_class_0::total             66278                       # Class of committed instruction
system.cpu.commit.refs                          13057                       # Number of memory references committed
system.cpu.commit.swp_count                         0                       # Number of s/w prefetches committed
system.cpu.commit.vec_insts                         0                       # Number of committed Vector instructions.
system.cpu.committedInsts                       33482                       # Number of Instructions Simulated
system.cpu.committedOps                         66278                       # Number of Ops (including micro ops) Simulated
system.cpu.cpi                               1.962129                       # CPI: Cycles Per Instruction
system.cpu.cpi_total                         1.962129                       # CPI: Total CPI of All Threads
system.cpu.decode.BlockedCycles                 17937                       # Number of cycles decode is blocked
system.cpu.decode.DecodedInsts                 122710                       # Number of instructions handled by decode
system.cpu.decode.IdleCycles                    14208                       # Number of cycles decode is idle
system.cpu.decode.RunCycles                     15633                       # Number of cycles decode is running
system.cpu.decode.SquashCycles                   1490                       # Number of cycles decode is squashing
system.cpu.decode.UnblockCycles                  2725                       # Number of cycles decode is unblocking
system.cpu.dtb.rdAccesses                        9889                       # TLB accesses on read requests
system.cpu.dtb.rdMisses                           101                       # TLB misses on read requests
system.cpu.dtb.wrAccesses                        6568                       # TLB accesses on write requests
system.cpu.dtb.wrMisses                            27                       # TLB misses on write requests
system.cpu.fetch.Branches                       16015                       # Number of branches that fetch encountered
system.cpu.fetch.CacheLines                     14435                       # Number of cache lines fetched
system.cpu.fetch.Cycles                         37032                       # Number of cycles fetch has run and was not squashing or blocked
system.cpu.fetch.IcacheSquashes                   464                       # Number of outstanding Icache misses that were squashed
system.cpu.fetch.IcacheWaitRetryStallCycles           62                       # Number of stall cycles due to full MSHR
system.cpu.fetch.Insts                          69220                       # Number of instructions fetch has processed
system.cpu.fetch.MiscStallCycles                   19                       # Number of cycles fetch has spent waiting on interrupts, or bad addresses, or out of MSHRs
system.cpu.fetch.PendingQuiesceStallCycles           18                       # Number of stall cycles due to pending quiesce instructions
system.cpu.fetch.PendingTrapStallCycles           103                       # Number of stall cycles due to pending traps
system.cpu.fetch.SquashCycles                    2980                       # Number of cycles fetch has spent squashing
system.cpu.fetch.branchRate                  0.243774                       # Number of branch fetches per cycle
system.cpu.fetch.icacheStallCycles              13269                       # Number of cycles fetch is stalled on an Icache miss
system.cpu.fetch.predictedBranches               6020                       # Number of branches that fetch has predicted taken
system.cpu.fetch.rate                        1.053641                       # Number of inst fetches per cycle
system.cpu.fetch.rateDist::samples              51993                       # Number of instructions fetched each cycle (Total)
system.cpu.fetch.rateDist::mean              2.600600                       # Number of instructions fetched each cycle (Total)
system.cpu.fetch.rateDist::stdev             3.304337                       # Number of instructions fetched each cycle (Total)
system.cpu.fetch.rateDist::underflows               0      0.00%      0.00% # Number of instructions fetched each cycle (Total)
system.cpu.fetch.rateDist::0                    28302     54.43%     54.43% # Number of instructions fetched each cycle (Total)
system.cpu.fetch.rateDist::1                     1324      2.55%     56.98% # Number of instructions fetched each cycle (Total)
system.cpu.fetch.rateDist::2                     2891      5.56%     62.54% # Number of instructions fetched each cycle (Total)
system.cpu.fetch.rateDist::3                     1788      3.44%     65.98% # Number of instructions fetched each cycle (Total)
system.cpu.fetch.rateDist::4                     2290      4.40%     70.38% # Number of instructions fetched each cycle (Total)
system.cpu.fetch.rateDist::5                     1216      2.34%     72.72% # Number of instructions fetched each cycle (Total)
system.cpu.fetch.rateDist::6                     2472      4.75%     77.48% # Number of instructions fetched each cycle (Total)
system.cpu.fetch.rateDist::7                     1009      1.94%     79.42% # Number of instructions fetched each cycle (Total)
system.cpu.fetch.rateDist::8                    10701     20.58%    100.00% # Number of instructions fetched each cycle (Total)
system.cpu.fetch.rateDist::overflows                0      0.00%    100.00% # Number of instructions fetched each cycle (Total)
system.cpu.fetch.rateDist::min_value                0                       # Number of instructions fetched each cycle (Total)
system.cpu.fetch.rateDist::max_value                8                       # Number of instructions fetched each cycle (Total)
system.cpu.fetch.rateDist::total                51993                       # Number of instructions fetched each cycle (Total)
system.cpu.fp_regfile_reads                      3585                       # number of floating regfile reads
system.cpu.fp_regfile_writes                     1171                       # number of floating regfile writes
system.cpu.idleCycles                           13703                       # Total number of cycles that the CPU has spent unscheduled due to idling
system.cpu.iew.branchMispredicts                 1914                       # Number of branch mispredicts detected at execute
system.cpu.iew.exec_branches                     9809                       # Number of branches executed
system.cpu.iew.exec_nop                             0                       # number of nop insts executed
system.cpu.iew.exec_rate                     1.399826                       # Inst execution rate
system.cpu.iew.exec_refs                        22025                       # number of memory reference insts executed
system.cpu.iew.exec_stores                       6567                       # Number of stores executed
system.cpu.iew.exec_swp                             0                       # number of swp insts executed
system.cpu.iew.iewBlockCycles                    4415                       # Number of cycles IEW is blocking
system.cpu.iew.iewDispLoadInsts                 12051                       # Number of dispatched load instructions
system.cpu.iew.iewDispNonSpecInsts                218                       # Number of dispatched non-speculative instructions
system.cpu.iew.iewDispSquashedInsts                18                       # Number of squashed instructions skipped by dispatch
system.cpu.iew.iewDispStoreInsts                 8275                       # Number of dispatched store instructions
system.cpu.iew.iewDispatchedInsts              102448                       # Number of instructions dispatched to IQ
system.cpu.iew.iewExecLoadInsts                 15458                       # Number of load instructions executed
system.cpu.iew.iewExecSquashedInsts              3483                       # Number of squashed instructions skipped in execute
system.cpu.iew.iewExecutedInsts                 91963                       # Number of executed instructions
system.cpu.iew.iewIQFullEvents                     10                       # Number of times the IQ has become full, causing a stall
system.cpu.iew.iewIdleCycles                        0                       # Number of cycles IEW is idle
system.cpu.iew.iewLSQFullEvents                    63                       # Number of times the LSQ has become full, causing a stall
system.cpu.iew.iewSquashCycles                   1490                       # Number of cycles IEW is squashing
system.cpu.iew.iewUnblockCycles                    80                       # Number of cycles IEW is unblocking
system.cpu.iew.lsq.thread0.blockedLoads             0                       # Number of blocked loads due to partial load-store forwarding
system.cpu.iew.lsq.thread0.cacheBlocked          1608                       # Number of times an access to memory failed due to the cache being blocked
system.cpu.iew.lsq.thread0.forwLoads              507                       # Number of loads that had data forwarded from stores
system.cpu.iew.lsq.thread0.ignoredResponses           10                       # Number of memory responses ignored because the instruction is squashed
system.cpu.iew.lsq.thread0.invAddrLoads             0                       # Number of loads ignored due to an invalid address
system.cpu.iew.lsq.thread0.invAddrSwpfs             0                       # Number of software prefetches ignored due to an invalid address
system.cpu.iew.lsq.thread0.memOrderViolation           43                       # Number of memory ordering violations
system.cpu.iew.lsq.thread0.rescheduledLoads            7                       # Number of loads that were rescheduled
system.cpu.iew.lsq.thread0.squashedLoads         4412                       # Number of loads squashed
system.cpu.iew.lsq.thread0.squashedStores         2857                       # Number of stores squashed
system.cpu.iew.memOrderViolationEvents             43                       # Number of memory order violations
system.cpu.iew.predictedNotTakenIncorrect         1833                       # Number of branches that were predicted not taken incorrectly
system.cpu.iew.predictedTakenIncorrect             81                       # Number of branches that were predicted taken incorrectly
system.cpu.iew.wb_consumers                     95300                       # num instructions consuming a value
system.cpu.iew.wb_count                         85600                       # cumulative count of insts written-back
system.cpu.iew.wb_fanout                     0.630577                       # average fanout of values written-back
system.cpu.iew.wb_producers                     60094                       # num instructions producing a value
system.cpu.iew.wb_rate                       1.302971                       # insts written-back per cycle
system.cpu.iew.wb_sent                          86257                       # cumulative count of insts sent to commit
system.cpu.int_regfile_reads                   128827                       # number of integer regfile reads
system.cpu.int_regfile_writes                   68475                       # number of integer regfile writes
system.cpu.ipc                               0.509651                       # IPC: Instructions Per Cycle
system.cpu.ipc_total                         0.509651                       # IPC: Total IPC of All Threads
system.cpu.iq.FU_type_0::No_OpClass              1230      1.29%      1.29% # Type of FU issued
system.cpu.iq.FU_type_0::IntAlu                 69830     73.16%     74.45% # Type of FU issued
system.cpu.iq.FU_type_0::IntMult                   35      0.04%     74.49% # Type of FU issued
system.cpu.iq.FU_type_0::IntDiv                   237      0.25%     74.74% # Type of FU issued
system.cpu.iq.FU_type_0::FloatAdd                  24      0.03%     74.76% # Type of FU issued
system.cpu.iq.FU_type_0::FloatCmp                   0      0.00%     74.76% # Type of FU issued
system.cpu.iq.FU_type_0::FloatCvt                   0      0.00%     74.76% # Type of FU issued
system.cpu.iq.FU_type_0::FloatMult                  0      0.00%     74.76% # Type of FU issued
system.cpu.iq.FU_type_0::FloatMultAcc               0      0.00%     74.76% # Type of FU issued
system.cpu.iq.FU_type_0::FloatDiv                   0      0.00%     74.76% # Type of FU issued
system.cpu.iq.FU_type_0::FloatMisc                  0      0.00%     74.76% # Type of FU issued
system.cpu.iq.FU_type_0::FloatSqrt                  0      0.00%     74.76% # Type of FU issued
system.cpu.iq.FU_type_0::SimdAdd                  514      0.54%     75.30% # Type of FU issued
system.cpu.iq.FU_type_0::SimdAddAcc                 0      0.00%     75.30% # Type of FU issued
system.cpu.iq.FU_type_0::SimdAlu                  138      0.14%     75.44% # Type of FU issued
system.cpu.iq.FU_type_0::SimdCmp                   12      0.01%     75.46% # Type of FU issued
system.cpu.iq.FU_type_0::SimdCvt                  144      0.15%     75.61% # Type of FU issued
system.cpu.iq.FU_type_0::SimdMisc                 285      0.30%     75.91% # Type of FU issued
system.cpu.iq.FU_type_0::SimdMult                   0      0.00%     75.91% # Type of FU issued
system.cpu.iq.FU_type_0::SimdMultAcc                0      0.00%     75.91% # Type of FU issued
system.cpu.iq.FU_type_0::SimdShift                  0      0.00%     75.91% # Type of FU issued
system.cpu.iq.FU_type_0::SimdShiftAcc               0      0.00%     75.91% # Type of FU issued
system.cpu.iq.FU_type_0::SimdDiv                    0      0.00%     75.91% # Type of FU issued
system.cpu.iq.FU_type_0::SimdSqrt                   0      0.00%     75.91% # Type of FU issued
system.cpu.iq.FU_type_0::SimdFloatAdd               0      0.00%     75.91% # Type of FU issued
system.cpu.iq.FU_type_0::SimdFloatAlu               0      0.00%     75.91% # Type of FU issued
system.cpu.iq.FU_type_0::SimdFloatCmp               0      0.00%     75.91% # Type of FU issued
system.cpu.iq.FU_type_0::SimdFloatCvt               0      0.00%     75.91% # Type of FU issued
system.cpu.iq.FU_type_0::SimdFloatDiv               0      0.00%     75.91% # Type of FU issued
system.cpu.iq.FU_type_0::SimdFloatMisc              0      0.00%     75.91% # Type of FU issued
system.cpu.iq.FU_type_0::SimdFloatMult              0      0.00%     75.91% # Type of FU issued
system.cpu.iq.FU_type_0::SimdFloatMultAcc            0      0.00%     75.91% # Type of FU issued
system.cpu.iq.FU_type_0::SimdFloatSqrt              0      0.00%     75.91% # Type of FU issued
system.cpu.iq.FU_type_0::SimdReduceAdd              0      0.00%     75.91% # Type of FU issued
system.cpu.iq.FU_type_0::SimdReduceAlu              0      0.00%     75.91% # Type of FU issued
system.cpu.iq.FU_type_0::SimdReduceCmp              0      0.00%     75.91% # Type of FU issued
system.cpu.iq.FU_type_0::SimdFloatReduceAdd            0      0.00%     75.91% # Type of FU issued
system.cpu.iq.FU_type_0::SimdFloatReduceCmp            0      0.00%     75.91% # Type of FU issued
system.cpu.iq.FU_type_0::SimdAes                    0      0.00%     75.91% # Type of FU issued
system.cpu.iq.FU_type_0::SimdAesMix                 0      0.00%     75.91% # Type of FU issued
system.cpu.iq.FU_type_0::SimdSha1Hash               0      0.00%     75.91% # Type of FU issued
system.cpu.iq.FU_type_0::SimdSha1Hash2              0      0.00%     75.91% # Type of FU issued
system.cpu.iq.FU_type_0::SimdSha256Hash             0      0.00%     75.91% # Type of FU issued
system.cpu.iq.FU_type_0::SimdSha256Hash2            0      0.00%     75.91% # Type of FU issued
system.cpu.iq.FU_type_0::SimdShaSigma2              0      0.00%     75.91% # Type of FU issued
system.cpu.iq.FU_type_0::SimdShaSigma3              0      0.00%     75.91% # Type of FU issued
system.cpu.iq.FU_type_0::SimdPredAlu                0      0.00%     75.91% # Type of FU issued
system.cpu.iq.FU_type_0::MemRead                15992     16.76%     92.66% # Type of FU issued
system.cpu.iq.FU_type_0::MemWrite                6181      6.48%     99.14% # Type of FU issued
system.cpu.iq.FU_type_0::FloatMemRead             100      0.10%     99.24% # Type of FU issued
system.cpu.iq.FU_type_0::FloatMemWrite            724      0.76%    100.00% # Type of FU issued
system.cpu.iq.FU_type_0::IprAccess                  0      0.00%    100.00% # Type of FU issued
system.cpu.iq.FU_type_0::InstPrefetch               0      0.00%    100.00% # Type of FU issued
system.cpu.iq.FU_type_0::total                  95446                       # Type of FU issued
system.cpu.iq.fp_alu_accesses                    2060                       # Number of floating point alu accesses
system.cpu.iq.fp_inst_queue_reads                4086                       # Number of floating instruction queue reads
system.cpu.iq.fp_inst_queue_wakeup_accesses         2000                       # Number of floating instruction queue wakeup accesses
system.cpu.iq.fp_inst_queue_writes               2176                       # Number of floating instruction queue writes
system.cpu.iq.fu_busy_cnt                        3192                       # FU busy when requested
system.cpu.iq.fu_busy_rate                   0.033443                       # FU busy rate (busy events/executed inst)
system.cpu.iq.fu_full::No_OpClass                   0      0.00%      0.00% # attempts to use FU when none available
system.cpu.iq.fu_full::IntAlu                    1859     58.24%     58.24% # attempts to use FU when none available
system.cpu.iq.fu_full::IntMult                      0      0.00%     58.24% # attempts to use FU when none available
system.cpu.iq.fu_full::IntDiv                       0      0.00%     58.24% # attempts to use FU when none available
system.cpu.iq.fu_full::FloatAdd                     0      0.00%     58.24% # attempts to use FU when none available
system.cpu.iq.fu_full::FloatCmp                     0      0.00%     58.24% # attempts to use FU when none available
system.cpu.iq.fu_full::FloatCvt                     0      0.00%     58.24% # attempts to use FU when none available
system.cpu.iq.fu_full::FloatMult                    0      0.00%     58.24% # attempts to use FU when none available
system.cpu.iq.fu_full::FloatMultAcc                 0      0.00%     58.24% # attempts to use FU when none available
system.cpu.iq.fu_full::FloatDiv                     0      0.00%     58.24% # attempts to use FU when none available
system.cpu.iq.fu_full::FloatMisc                    0      0.00%     58.24% # attempts to use FU when none available
system.cpu.iq.fu_full::FloatSqrt                    0      0.00%     58.24% # attempts to use FU when none available
system.cpu.iq.fu_full::SimdAdd                      0      0.00%     58.24% # attempts to use FU when none available
system.cpu.iq.fu_full::SimdAddAcc                   0      0.00%     58.24% # attempts to use FU when none available
system.cpu.iq.fu_full::SimdAlu                      6      0.19%     58.43% # attempts to use FU when none available
system.cpu.iq.fu_full::SimdCmp                      0      0.00%     58.43% # attempts to use FU when none available
system.cpu.iq.fu_full::SimdCvt                      5      0.16%     58.58% # attempts to use FU when none available
system.cpu.iq.fu_full::SimdMisc                     5      0.16%     58.74% # attempts to use FU when none available
system.cpu.iq.fu_full::SimdMult                     0      0.00%     58.74% # attempts to use FU when none available
system.cpu.iq.fu_full::SimdMultAcc                  0      0.00%     58.74% # attempts to use FU when none available
system.cpu.iq.fu_full::SimdShift                    0      0.00%     58.74% # attempts to use FU when none available
system.cpu.iq.fu_full::SimdShiftAcc                 0      0.00%     58.74% # attempts to use FU when none available
system.cpu.iq.fu_full::SimdDiv                      0      0.00%     58.74% # attempts to use FU when none available
system.cpu.iq.fu_full::SimdSqrt                     0      0.00%     58.74% # attempts to use FU when none available
system.cpu.iq.fu_full::SimdFloatAdd                 0      0.00%     58.74% # attempts to use FU when none available
system.cpu.iq.fu_full::SimdFloatAlu                 0      0.00%     58.74% # attempts to use FU when none available
system.cpu.iq.fu_full::SimdFloatCmp                 0      0.00%     58.74% # attempts to use FU when none available
system.cpu.iq.fu_full::SimdFloatCvt                 0      0.00%     58.74% # attempts to use FU when none available
system.cpu.iq.fu_full::SimdFloatDiv                 0      0.00%     58.74% # attempts to use FU when none available
system.cpu.iq.fu_full::SimdFloatMisc                0      0.00%     58.74% # attempts to use FU when none available
system.cpu.iq.fu_full::SimdFloatMult                0      0.00%     58.74% # attempts to use FU when none available
system.cpu.iq.fu_full::SimdFloatMultAcc             0      0.00%     58.74% # attempts to use FU when none available
system.cpu.iq.fu_full::SimdFloatSqrt                0      0.00%     58.74% # attempts to use FU when none available
system.cpu.iq.fu_full::SimdReduceAdd                0      0.00%     58.74% # attempts to use FU when none available
system.cpu.iq.fu_full::SimdReduceAlu                0      0.00%     58.74% # attempts to use FU when none available
system.cpu.iq.fu_full::SimdReduceCmp                0      0.00%     58.74% # attempts to use FU when none available
system.cpu.iq.fu_full::SimdFloatReduceAdd            0      0.00%     58.74% # attempts to use FU when none available
system.cpu.iq.fu_full::SimdFloatReduceCmp            0      0.00%     58.74% # attempts to use FU when none available
system.cpu.iq.fu_full::SimdAes                      0      0.00%     58.74% # attempts to use FU when none available
system.cpu.iq.fu_full::SimdAesMix                   0      0.00%     58.74% # attempts to use FU when none available
system.cpu.iq.fu_full::SimdSha1Hash                 0      0.00%     58.74% # attempts to use FU when none available
system.cpu.iq.fu_full::SimdSha1Hash2                0      0.00%     58.74% # attempts to use FU when none available
system.cpu.iq.fu_full::SimdSha256Hash               0      0.00%     58.74% # attempts to use FU when none available
system.cpu.iq.fu_full::SimdSha256Hash2              0      0.00%     58.74% # attempts to use FU when none available
system.cpu.iq.fu_full::SimdShaSigma2                0      0.00%     58.74% # attempts to use FU when none available
system.cpu.iq.fu_full::SimdShaSigma3                0      0.00%     58.74% # attempts to use FU when none available
system.cpu.iq.fu_full::SimdPredAlu                  0      0.00%     58.74% # attempts to use FU when none available
system.cpu.iq.fu_full::MemRead                   1234     38.66%     97.40% # attempts to use FU when none available
system.cpu.iq.fu_full::MemWrite                    61      1.91%     99.31% # attempts to use FU when none available
system.cpu.iq.fu_full::FloatMemRead                 1      0.03%     99.34% # attempts to use FU when none available
system.cpu.iq.fu_full::FloatMemWrite               21      0.66%    100.00% # attempts to use FU when none available
system.cpu.iq.fu_full::IprAccess                    0      0.00%    100.00% # attempts to use FU when none available
system.cpu.iq.fu_full::InstPrefetch                 0      0.00%    100.00% # attempts to use FU when none available
system.cpu.iq.int_alu_accesses                  95348                       # Number of integer alu accesses
system.cpu.iq.int_inst_queue_reads             242752                       # Number of integer instruction queue reads
system.cpu.iq.int_inst_queue_wakeup_accesses        83600                       # Number of integer instruction queue wakeup accesses
system.cpu.iq.int_inst_queue_writes            136478                       # Number of integer instruction queue writes
system.cpu.iq.iqInstsAdded                     101974                       # Number of instructions added to the IQ (excludes non-spec)
system.cpu.iq.iqInstsIssued                     95446                       # Number of instructions issued
system.cpu.iq.iqNonSpecInstsAdded                 474                       # Number of non-speculative instructions added to the IQ
system.cpu.iq.iqSquashedInstsExamined           36169                       # Number of squashed instructions iterated over during squash; mainly for profiling
system.cpu.iq.iqSquashedInstsIssued               761                       # Number of squashed instructions issued
system.cpu.iq.iqSquashedNonSpecRemoved            339                       # Number of squashed non-spec instructions that were removed
system.cpu.iq.iqSquashedOperandsExamined        49800                       # Number of squashed operands that are examined and possibly removed from graph
system.cpu.iq.issued_per_cycle::samples         51993                       # Number of insts issued each cycle
system.cpu.iq.issued_per_cycle::mean         1.835747                       # Number of insts issued each cycle
system.cpu.iq.issued_per_cycle::stdev        2.599095                       # Number of insts issued each cycle
system.cpu.iq.issued_per_cycle::underflows            0      0.00%      0.00% # Number of insts issued each cycle
system.cpu.iq.issued_per_cycle::0               30932     59.49%     59.49% # Number of insts issued each cycle
system.cpu.iq.issued_per_cycle::1                2273      4.37%     63.86% # Number of insts issued each cycle
system.cpu.iq.issued_per_cycle::2                2434      4.68%     68.55% # Number of insts issued each cycle
system.cpu.iq.issued_per_cycle::3                2174      4.18%     72.73% # Number of insts issued each cycle
system.cpu.iq.issued_per_cycle::4                2894      5.57%     78.29% # Number of insts issued each cycle
system.cpu.iq.issued_per_cycle::5                3457      6.65%     84.94% # Number of insts issued each cycle
system.cpu.iq.issued_per_cycle::6                3363      6.47%     91.41% # Number of insts issued each cycle
system.cpu.iq.issued_per_cycle::7                2984      5.74%     97.15% # Number of insts issued each cycle
system.cpu.iq.issued_per_cycle::8                1482      2.85%    100.00% # Number of insts issued each cycle
system.cpu.iq.issued_per_cycle::overflows            0      0.00%    100.00% # Number of insts issued each cycle
system.cpu.iq.issued_per_cycle::min_value            0                       # Number of insts issued each cycle
system.cpu.iq.issued_per_cycle::max_value            8                       # Number of insts issued each cycle
system.cpu.iq.issued_per_cycle::total           51993                       # Number of insts issued each cycle
system.cpu.iq.rate                           1.452843                       # Inst issue rate
system.cpu.iq.vec_alu_accesses                      0                       # Number of vector alu accesses
system.cpu.iq.vec_inst_queue_reads                  0                       # Number of vector instruction queue reads
system.cpu.iq.vec_inst_queue_wakeup_accesses            0                       # Number of vector instruction queue wakeup accesses
system.cpu.iq.vec_inst_queue_writes                 0                       # Number of vector instruction queue writes
system.cpu.itb.rdAccesses                           0                       # TLB accesses on read requests
system.cpu.itb.rdMisses                             0                       # TLB misses on read requests
system.cpu.itb.wrAccesses                       14454                       # TLB accesses on write requests
system.cpu.itb.wrMisses                            70                       # TLB misses on write requests
system.cpu.memDep0.conflictingLoads               401                       # Number of conflicting loads.
system.cpu.memDep0.conflictingStores              387                       # Number of conflicting stores.
system.cpu.memDep0.insertedLoads                12051                       # Number of loads inserted to the mem dependence unit.
system.cpu.memDep0.insertedStores                8275                       # Number of stores inserted to the mem dependence unit.
system.cpu.misc_regfile_reads                   42694                       # number of misc regfile reads
system.cpu.numCycles                            65696                       # number of cpu cycles simulated
system.cpu.numWorkItemsCompleted                    0                       # number of work items this cpu completed
system.cpu.numWorkItemsStarted                      0                       # number of work items this cpu started
system.cpu.rename.BlockCycles                    5158                       # Number of cycles rename is blocking
system.cpu.rename.CommittedMaps                 75501                       # Number of HB maps that are committed
system.cpu.rename.IQFullEvents                    673                       # Number of times rename has blocked due to IQ full
system.cpu.rename.IdleCycles                    15527                       # Number of cycles rename is idle
system.cpu.rename.ROBFullEvents                   233                       # Number of times rename has blocked due to ROB full
system.cpu.rename.RenameLookups                288446                       # Number of register rename lookups that rename has made
system.cpu.rename.RenamedInsts                 115869                       # Number of instructions processed by rename
system.cpu.rename.RenamedOperands              130752                       # Number of destination operands rename has renamed
system.cpu.rename.RunCycles                     16958                       # Number of cycles rename is running
system.cpu.rename.SQFullEvents                   9612                       # Number of times rename has blocked due to SQ full
system.cpu.rename.SquashCycles                   1490                       # Number of cycles rename is squashing
system.cpu.rename.UnblockCycles                 10820                       # Number of cycles rename is unblocking
system.cpu.rename.UndoneMaps                    55251                       # Number of HB maps that are undone due to squashing
system.cpu.rename.fp_rename_lookups              3673                       # Number of floating rename lookups
system.cpu.rename.int_rename_lookups           167049                       # Number of integer rename lookups
system.cpu.rename.serializeStallCycles           2040                       # count of cycles rename stalled for serializing inst
system.cpu.rename.serializingInsts                119                       # count of serializing insts renamed
system.cpu.rename.skidInsts                      5620                       # count of insts added to the skid buffer
system.cpu.rename.tempSerializingInsts            114                       # count of temporary serializing insts renamed
system.cpu.rob.rob_reads                       144462                       # The number of ROB reads
system.cpu.rob.rob_writes                      210650                       # The number of ROB writes
system.cpu.timesIdled                             342                       # Number of times that the entire CPU went into an idle state and unscheduled itself
system.cpu.workload.numSyscalls                    75                       # Number of system calls
system.ruby.DMA_Controller.Ack           |          16     25.00%     25.00% |          16     25.00%     50.00% |          16     25.00%     75.00% |          16     25.00%    100.00%
system.ruby.DMA_Controller.Ack::total              64                      
system.ruby.DMA_Controller.BUSY_RD.Data  |          48     25.00%     25.00% |          48     25.00%     50.00% |          48     25.00%     75.00% |          48     25.00%    100.00%
system.ruby.DMA_Controller.BUSY_RD.Data::total          192                      
system.ruby.DMA_Controller.BUSY_WR.Ack   |          16     25.00%     25.00% |          16     25.00%     50.00% |          16     25.00%     75.00% |          16     25.00%    100.00%
system.ruby.DMA_Controller.BUSY_WR.Ack::total           64                      
system.ruby.DMA_Controller.Data          |          48     25.00%     25.00% |          48     25.00%     50.00% |          48     25.00%     75.00% |          48     25.00%    100.00%
system.ruby.DMA_Controller.Data::total            192                      
system.ruby.DMA_Controller.READY.ReadRequest |          48     25.00%     25.00% |          48     25.00%     50.00% |          48     25.00%     75.00% |          48     25.00%    100.00%
system.ruby.DMA_Controller.READY.ReadRequest::total          192                      
system.ruby.DMA_Controller.READY.WriteRequest |          16     25.00%     25.00% |          16     25.00%     50.00% |          16     25.00%     75.00% |          16     25.00%    100.00%
system.ruby.DMA_Controller.READY.WriteRequest::total           64                      
system.ruby.DMA_Controller.ReadRequest   |          48     25.00%     25.00% |          48     25.00%     50.00% |          48     25.00%     75.00% |          48     25.00%    100.00%
system.ruby.DMA_Controller.ReadRequest::total          192                      
system.ruby.DMA_Controller.WriteRequest  |          16     25.00%     25.00% |          16     25.00%     50.00% |          16     25.00%     75.00% |          16     25.00%    100.00%
system.ruby.DMA_Controller.WriteRequest::total           64                      
system.ruby.Directory_Controller.DMA_READ          192      0.00%      0.00%
system.ruby.Directory_Controller.DMA_WRITE           64      0.00%      0.00%
system.ruby.Directory_Controller.Data             128      0.00%      0.00%
system.ruby.Directory_Controller.Fetch           1092      0.00%      0.00%
system.ruby.Directory_Controller.I.DMA_READ           64      0.00%      0.00%
system.ruby.Directory_Controller.I.DMA_WRITE           64      0.00%      0.00%
system.ruby.Directory_Controller.I.Fetch         1092      0.00%      0.00%
system.ruby.Directory_Controller.ID.Memory_Data           64      0.00%      0.00%
system.ruby.Directory_Controller.ID_W.Memory_Ack           64      0.00%      0.00%
system.ruby.Directory_Controller.IM.Memory_Data         1091      0.00%      0.00%
system.ruby.Directory_Controller.M.DMA_READ          128      0.00%      0.00%
system.ruby.Directory_Controller.M_DRD.Data          128      0.00%      0.00%
system.ruby.Directory_Controller.M_DRDI.Memory_Ack          128      0.00%      0.00%
system.ruby.Directory_Controller.Memory_Ack          192      0.00%      0.00%
system.ruby.Directory_Controller.Memory_Data         1155      0.00%      0.00%
system.ruby.IFETCH.hit_latency_hist_seqr::bucket_size            1                      
system.ruby.IFETCH.hit_latency_hist_seqr::max_bucket            9                      
system.ruby.IFETCH.hit_latency_hist_seqr::samples        13538                      
system.ruby.IFETCH.hit_latency_hist_seqr |       13538    100.00%    100.00% |           0      0.00%    100.00% |           0      0.00%    100.00% |           0      0.00%    100.00% |           0      0.00%    100.00% |           0      0.00%    100.00% |           0      0.00%    100.00% |           0      0.00%    100.00% |           0      0.00%    100.00% |           0      0.00%    100.00%
system.ruby.IFETCH.hit_latency_hist_seqr::total        13538                      
system.ruby.IFETCH.latency_hist_seqr::bucket_size           16                      
system.ruby.IFETCH.latency_hist_seqr::max_bucket          159                      
system.ruby.IFETCH.latency_hist_seqr::samples        14253                      
system.ruby.IFETCH.latency_hist_seqr::mean     0.010384                      
system.ruby.IFETCH.latency_hist_seqr::stdev     1.239677                      
system.ruby.IFETCH.latency_hist_seqr     |       14252     99.99%     99.99% |           0      0.00%     99.99% |           0      0.00%     99.99% |           0      0.00%     99.99% |           0      0.00%     99.99% |           0      0.00%     99.99% |           0      0.00%     99.99% |           0      0.00%     99.99% |           0      0.00%     99.99% |           1      0.01%    100.00%
system.ruby.IFETCH.latency_hist_seqr::total        14253                      
system.ruby.IFETCH.miss_latency_hist_seqr::bucket_size           16                      
system.ruby.IFETCH.miss_latency_hist_seqr::max_bucket          159                      
system.ruby.IFETCH.miss_latency_hist_seqr::samples          715                      
system.ruby.IFETCH.miss_latency_hist_seqr::mean     0.206993                      
system.ruby.IFETCH.miss_latency_hist_seqr::stdev     5.534886                      
system.ruby.IFETCH.miss_latency_hist_seqr |         714     99.86%     99.86% |           0      0.00%     99.86% |           0      0.00%     99.86% |           0      0.00%     99.86% |           0      0.00%     99.86% |           0      0.00%     99.86% |           0      0.00%     99.86% |           0      0.00%     99.86% |           0      0.00%     99.86% |           1      0.14%    100.00%
system.ruby.IFETCH.miss_latency_hist_seqr::total          715                      
system.ruby.L1Cache_Controller.Ack       |           6    100.00%    100.00% |           0      0.00%    100.00% |           0      0.00%    100.00% |           0      0.00%    100.00% |           0      0.00%    100.00%
system.ruby.L1Cache_Controller.Ack::total            6                      
system.ruby.L1Cache_Controller.Ack_all   |           6    100.00%    100.00% |           0      0.00%    100.00% |           0      0.00%    100.00% |           0      0.00%    100.00% |           0      0.00%    100.00%
system.ruby.L1Cache_Controller.Ack_all::total            6                      
system.ruby.L1Cache_Controller.DataS_fromL1 |           6    100.00%    100.00% |           0      0.00%    100.00% |           0      0.00%    100.00% |           0      0.00%    100.00% |           0      0.00%    100.00%
system.ruby.L1Cache_Controller.DataS_fromL1::total            6                      
system.ruby.L1Cache_Controller.Data_Exclusive |         223    100.00%    100.00% |           0      0.00%    100.00% |           0      0.00%    100.00% |           0      0.00%    100.00% |           0      0.00%    100.00%
system.ruby.L1Cache_Controller.Data_Exclusive::total          223                      
system.ruby.L1Cache_Controller.Data_all_Acks |         961     99.17%     99.17% |           2      0.21%     99.38% |           2      0.21%     99.59% |           2      0.21%     99.79% |           2      0.21%    100.00%
system.ruby.L1Cache_Controller.Data_all_Acks::total          969                      
system.ruby.L1Cache_Controller.E.L1_Replacement |           1    100.00%    100.00% |           0      0.00%    100.00% |           0      0.00%    100.00% |           0      0.00%    100.00% |           0      0.00%    100.00%
system.ruby.L1Cache_Controller.E.L1_Replacement::total            1                      
system.ruby.L1Cache_Controller.E.Load    |        1539    100.00%    100.00% |           0      0.00%    100.00% |           0      0.00%    100.00% |           0      0.00%    100.00% |           0      0.00%    100.00%
system.ruby.L1Cache_Controller.E.Load::total         1539                      
system.ruby.L1Cache_Controller.E.Store   |          28    100.00%    100.00% |           0      0.00%    100.00% |           0      0.00%    100.00% |           0      0.00%    100.00% |           0      0.00%    100.00%
system.ruby.L1Cache_Controller.E.Store::total           28                      
system.ruby.L1Cache_Controller.Fwd_GETS  |           0      0.00%      0.00% |           2     33.33%     33.33% |           1     16.67%     50.00% |           1     16.67%     66.67% |           2     33.33%    100.00%
system.ruby.L1Cache_Controller.Fwd_GETS::total            6                      
system.ruby.L1Cache_Controller.Fwd_GETX  |           8     80.00%     80.00% |           0      0.00%     80.00% |           1     10.00%     90.00% |           1     10.00%    100.00% |           0      0.00%    100.00%
system.ruby.L1Cache_Controller.Fwd_GETX::total           10                      
system.ruby.L1Cache_Controller.I.Load    |         134    100.00%    100.00% |           0      0.00%    100.00% |           0      0.00%    100.00% |           0      0.00%    100.00% |           0      0.00%    100.00%
system.ruby.L1Cache_Controller.I.Load::total          134                      
system.ruby.L1Cache_Controller.I.Store   |           2     66.67%     66.67% |           0      0.00%     66.67% |           1     33.33%    100.00% |           0      0.00%    100.00% |           0      0.00%    100.00%
system.ruby.L1Cache_Controller.I.Store::total            3                      
system.ruby.L1Cache_Controller.IM.Data_all_Acks |         246     96.85%     96.85% |           2      0.79%     97.64% |           2      0.79%     98.43% |           2      0.79%     99.21% |           2      0.79%    100.00%
system.ruby.L1Cache_Controller.IM.Data_all_Acks::total          254                      
system.ruby.L1Cache_Controller.IS.DataS_fromL1 |           6    100.00%    100.00% |           0      0.00%    100.00% |           0      0.00%    100.00% |           0      0.00%    100.00% |           0      0.00%    100.00%
system.ruby.L1Cache_Controller.IS.DataS_fromL1::total            6                      
system.ruby.L1Cache_Controller.IS.Data_Exclusive |         223    100.00%    100.00% |           0      0.00%    100.00% |           0      0.00%    100.00% |           0      0.00%    100.00% |           0      0.00%    100.00%
system.ruby.L1Cache_Controller.IS.Data_Exclusive::total          223                      
system.ruby.L1Cache_Controller.IS.Data_all_Acks |         715    100.00%    100.00% |           0      0.00%    100.00% |           0      0.00%    100.00% |           0      0.00%    100.00% |           0      0.00%    100.00%
system.ruby.L1Cache_Controller.IS.Data_all_Acks::total          715                      
system.ruby.L1Cache_Controller.Ifetch    |       14255    100.00%    100.00% |           0      0.00%    100.00% |           0      0.00%    100.00% |           0      0.00%    100.00% |           0      0.00%    100.00%
system.ruby.L1Cache_Controller.Ifetch::total        14255                      
system.ruby.L1Cache_Controller.Inv       |         128     95.52%     95.52% |           2      1.49%     97.01% |           1      0.75%     97.76% |           1      0.75%     98.51% |           2      1.49%    100.00%
system.ruby.L1Cache_Controller.Inv::total          134                      
system.ruby.L1Cache_Controller.L1_Replacement |         290    100.00%    100.00% |           0      0.00%    100.00% |           0      0.00%    100.00% |           0      0.00%    100.00% |           0      0.00%    100.00%
system.ruby.L1Cache_Controller.L1_Replacement::total          290                      
system.ruby.L1Cache_Controller.Load      |        6994    100.00%    100.00% |           0      0.00%    100.00% |           0      0.00%    100.00% |           0      0.00%    100.00% |           0      0.00%    100.00%
system.ruby.L1Cache_Controller.Load::total         6994                      
system.ruby.L1Cache_Controller.M.Fwd_GETS |           0      0.00%      0.00% |           2     33.33%     33.33% |           1     16.67%     50.00% |           1     16.67%     66.67% |           2     33.33%    100.00%
system.ruby.L1Cache_Controller.M.Fwd_GETS::total            6                      
system.ruby.L1Cache_Controller.M.Fwd_GETX |           8     80.00%     80.00% |           0      0.00%     80.00% |           1     10.00%     90.00% |           1     10.00%    100.00% |           0      0.00%    100.00%
system.ruby.L1Cache_Controller.M.Fwd_GETX::total           10                      
system.ruby.L1Cache_Controller.M.Inv     |         128    100.00%    100.00% |           0      0.00%    100.00% |           0      0.00%    100.00% |           0      0.00%    100.00% |           0      0.00%    100.00%
system.ruby.L1Cache_Controller.M.Inv::total          128                      
system.ruby.L1Cache_Controller.M.Load    |        5204    100.00%    100.00% |           0      0.00%    100.00% |           0      0.00%    100.00% |           0      0.00%    100.00% |           0      0.00%    100.00%
system.ruby.L1Cache_Controller.M.Load::total         5204                      
system.ruby.L1Cache_Controller.M.Store   |        5470    100.00%    100.00% |           0      0.00%    100.00% |           0      0.00%    100.00% |           0      0.00%    100.00% |           0      0.00%    100.00%
system.ruby.L1Cache_Controller.M.Store::total         5470                      
system.ruby.L1Cache_Controller.M_I.Ifetch |           1    100.00%    100.00% |           0      0.00%    100.00% |           0      0.00%    100.00% |           0      0.00%    100.00% |           0      0.00%    100.00%
system.ruby.L1Cache_Controller.M_I.Ifetch::total            1                      
system.ruby.L1Cache_Controller.M_I.WB_Ack |           1    100.00%    100.00% |           0      0.00%    100.00% |           0      0.00%    100.00% |           0      0.00%    100.00% |           0      0.00%    100.00%
system.ruby.L1Cache_Controller.M_I.WB_Ack::total            1                      
system.ruby.L1Cache_Controller.NP.Ifetch |         716    100.00%    100.00% |           0      0.00%    100.00% |           0      0.00%    100.00% |           0      0.00%    100.00% |           0      0.00%    100.00%
system.ruby.L1Cache_Controller.NP.Ifetch::total          716                      
system.ruby.L1Cache_Controller.NP.Load   |          95    100.00%    100.00% |           0      0.00%    100.00% |           0      0.00%    100.00% |           0      0.00%    100.00% |           0      0.00%    100.00%
system.ruby.L1Cache_Controller.NP.Load::total           95                      
system.ruby.L1Cache_Controller.NP.Store  |         244     97.21%     97.21% |           2      0.80%     98.01% |           1      0.40%     98.41% |           2      0.80%     99.20% |           2      0.80%    100.00%
system.ruby.L1Cache_Controller.NP.Store::total          251                      
system.ruby.L1Cache_Controller.S.Ifetch  |       13538    100.00%    100.00% |           0      0.00%    100.00% |           0      0.00%    100.00% |           0      0.00%    100.00% |           0      0.00%    100.00%
system.ruby.L1Cache_Controller.S.Ifetch::total        13538                      
system.ruby.L1Cache_Controller.S.Inv     |           0      0.00%      0.00% |           2     33.33%     33.33% |           1     16.67%     50.00% |           1     16.67%     66.67% |           2     33.33%    100.00%
system.ruby.L1Cache_Controller.S.Inv::total            6                      
system.ruby.L1Cache_Controller.S.L1_Replacement |         289    100.00%    100.00% |           0      0.00%    100.00% |           0      0.00%    100.00% |           0      0.00%    100.00% |           0      0.00%    100.00%
system.ruby.L1Cache_Controller.S.L1_Replacement::total          289                      
system.ruby.L1Cache_Controller.S.Load    |          22    100.00%    100.00% |           0      0.00%    100.00% |           0      0.00%    100.00% |           0      0.00%    100.00% |           0      0.00%    100.00%
system.ruby.L1Cache_Controller.S.Load::total           22                      
system.ruby.L1Cache_Controller.S.Store   |           6    100.00%    100.00% |           0      0.00%    100.00% |           0      0.00%    100.00% |           0      0.00%    100.00% |           0      0.00%    100.00%
system.ruby.L1Cache_Controller.S.Store::total            6                      
system.ruby.L1Cache_Controller.SM.Ack    |           6    100.00%    100.00% |           0      0.00%    100.00% |           0      0.00%    100.00% |           0      0.00%    100.00% |           0      0.00%    100.00%
system.ruby.L1Cache_Controller.SM.Ack::total            6                      
system.ruby.L1Cache_Controller.SM.Ack_all |           6    100.00%    100.00% |           0      0.00%    100.00% |           0      0.00%    100.00% |           0      0.00%    100.00% |           0      0.00%    100.00%
system.ruby.L1Cache_Controller.SM.Ack_all::total            6                      
system.ruby.L1Cache_Controller.Store     |        5750     99.86%     99.86% |           2      0.03%     99.90% |           2      0.03%     99.93% |           2      0.03%     99.97% |           2      0.03%    100.00%
system.ruby.L1Cache_Controller.Store::total         5758                      
system.ruby.L1Cache_Controller.WB_Ack    |           1    100.00%    100.00% |           0      0.00%    100.00% |           0      0.00%    100.00% |           0      0.00%    100.00% |           0      0.00%    100.00%
system.ruby.L1Cache_Controller.WB_Ack::total            1                      
system.ruby.L2Cache_Controller.Exclusive_Unblock          483      0.00%      0.00%
system.ruby.L2Cache_Controller.IM.Mem_Data          244      0.00%      0.00%
system.ruby.L2Cache_Controller.IS.Mem_Data          624      0.00%      0.00%
system.ruby.L2Cache_Controller.ISS.Mem_Data          223      0.00%      0.00%
system.ruby.L2Cache_Controller.L1_GETS            229      0.00%      0.00%
system.ruby.L2Cache_Controller.L1_GETX            254      0.00%      0.00%
system.ruby.L2Cache_Controller.L1_GET_INSTR          716      0.00%      0.00%
system.ruby.L2Cache_Controller.L1_PUTX              1      0.00%      0.00%
system.ruby.L2Cache_Controller.L1_UPGRADE            6      0.00%      0.00%
system.ruby.L2Cache_Controller.M.L1_GET_INSTR            1      0.00%      0.00%
system.ruby.L2Cache_Controller.MEM_Inv            256      0.00%      0.00%
system.ruby.L2Cache_Controller.MT.L1_GETS            6      0.00%      0.00%
system.ruby.L2Cache_Controller.MT.L1_GETX           10      0.00%      0.00%
system.ruby.L2Cache_Controller.MT.L1_PUTX            1      0.00%      0.00%
system.ruby.L2Cache_Controller.MT.MEM_Inv          128      0.00%      0.00%
system.ruby.L2Cache_Controller.MT_I.MEM_Inv          128      0.00%      0.00%
system.ruby.L2Cache_Controller.MT_I.WB_Data          128      0.00%      0.00%
system.ruby.L2Cache_Controller.MT_IIB.WB_Data            6      0.00%      0.00%
system.ruby.L2Cache_Controller.MT_MB.Exclusive_Unblock          477      0.00%      0.00%
system.ruby.L2Cache_Controller.MT_SB.Unblock            6      0.00%      0.00%
system.ruby.L2Cache_Controller.M_I.Mem_Ack          128      0.00%      0.00%
system.ruby.L2Cache_Controller.Mem_Ack            128      0.00%      0.00%
system.ruby.L2Cache_Controller.Mem_Data          1091      0.00%      0.00%
system.ruby.L2Cache_Controller.NP.L1_GETS          223      0.00%      0.00%
system.ruby.L2Cache_Controller.NP.L1_GETX          244      0.00%      0.00%
system.ruby.L2Cache_Controller.NP.L1_GET_INSTR          625      0.00%      0.00%
system.ruby.L2Cache_Controller.SS.L1_GET_INSTR           90      0.00%      0.00%
system.ruby.L2Cache_Controller.SS.L1_UPGRADE            6      0.00%      0.00%
system.ruby.L2Cache_Controller.SS_MB.Exclusive_Unblock            6      0.00%      0.00%
system.ruby.L2Cache_Controller.Unblock              6      0.00%      0.00%
system.ruby.L2Cache_Controller.WB_Data            134      0.00%      0.00%
system.ruby.LD.hit_latency_hist_seqr::bucket_size            1                      
system.ruby.LD.hit_latency_hist_seqr::max_bucket            9                      
system.ruby.LD.hit_latency_hist_seqr::samples         6765                      
system.ruby.LD.hit_latency_hist_seqr     |        6765    100.00%    100.00% |           0      0.00%    100.00% |           0      0.00%    100.00% |           0      0.00%    100.00% |           0      0.00%    100.00% |           0      0.00%    100.00% |           0      0.00%    100.00% |           0      0.00%    100.00% |           0      0.00%    100.00% |           0      0.00%    100.00%
system.ruby.LD.hit_latency_hist_seqr::total         6765                      
system.ruby.LD.latency_hist_seqr::bucket_size            1                      
system.ruby.LD.latency_hist_seqr::max_bucket            9                      
system.ruby.LD.latency_hist_seqr::samples         6994                      
system.ruby.LD.latency_hist_seqr         |        6994    100.00%    100.00% |           0      0.00%    100.00% |           0      0.00%    100.00% |           0      0.00%    100.00% |           0      0.00%    100.00% |           0      0.00%    100.00% |           0      0.00%    100.00% |           0      0.00%    100.00% |           0      0.00%    100.00% |           0      0.00%    100.00%
system.ruby.LD.latency_hist_seqr::total          6994                      
system.ruby.LD.miss_latency_hist_seqr::bucket_size            1                      
system.ruby.LD.miss_latency_hist_seqr::max_bucket            9                      
system.ruby.LD.miss_latency_hist_seqr::samples          229                      
system.ruby.LD.miss_latency_hist_seqr    |         229    100.00%    100.00% |           0      0.00%    100.00% |           0      0.00%    100.00% |           0      0.00%    100.00% |           0      0.00%    100.00% |           0      0.00%    100.00% |           0      0.00%    100.00% |           0      0.00%    100.00% |           0      0.00%    100.00% |           0      0.00%    100.00%
system.ruby.LD.miss_latency_hist_seqr::total          229                      
system.ruby.Locked_RMW_Read.hit_latency_hist_seqr::bucket_size            1                      
system.ruby.Locked_RMW_Read.hit_latency_hist_seqr::max_bucket            9                      
system.ruby.Locked_RMW_Read.hit_latency_hist_seqr::samples           20                      
system.ruby.Locked_RMW_Read.hit_latency_hist_seqr |          20    100.00%    100.00% |           0      0.00%    100.00% |           0      0.00%    100.00% |           0      0.00%    100.00% |           0      0.00%    100.00% |           0      0.00%    100.00% |           0      0.00%    100.00% |           0      0.00%    100.00% |           0      0.00%    100.00% |           0      0.00%    100.00%
system.ruby.Locked_RMW_Read.hit_latency_hist_seqr::total           20                      
system.ruby.Locked_RMW_Read.latency_hist_seqr::bucket_size            1                      
system.ruby.Locked_RMW_Read.latency_hist_seqr::max_bucket            9                      
system.ruby.Locked_RMW_Read.latency_hist_seqr::samples           20                      
system.ruby.Locked_RMW_Read.latency_hist_seqr |          20    100.00%    100.00% |           0      0.00%    100.00% |           0      0.00%    100.00% |           0      0.00%    100.00% |           0      0.00%    100.00% |           0      0.00%    100.00% |           0      0.00%    100.00% |           0      0.00%    100.00% |           0      0.00%    100.00% |           0      0.00%    100.00%
system.ruby.Locked_RMW_Read.latency_hist_seqr::total           20                      
system.ruby.Locked_RMW_Write.hit_latency_hist_seqr::bucket_size            1                      
system.ruby.Locked_RMW_Write.hit_latency_hist_seqr::max_bucket            9                      
system.ruby.Locked_RMW_Write.hit_latency_hist_seqr::samples           20                      
system.ruby.Locked_RMW_Write.hit_latency_hist_seqr |          20    100.00%    100.00% |           0      0.00%    100.00% |           0      0.00%    100.00% |           0      0.00%    100.00% |           0      0.00%    100.00% |           0      0.00%    100.00% |           0      0.00%    100.00% |           0      0.00%    100.00% |           0      0.00%    100.00% |           0      0.00%    100.00%
system.ruby.Locked_RMW_Write.hit_latency_hist_seqr::total           20                      
system.ruby.Locked_RMW_Write.latency_hist_seqr::bucket_size            1                      
system.ruby.Locked_RMW_Write.latency_hist_seqr::max_bucket            9                      
system.ruby.Locked_RMW_Write.latency_hist_seqr::samples           20                      
system.ruby.Locked_RMW_Write.latency_hist_seqr |          20    100.00%    100.00% |           0      0.00%    100.00% |           0      0.00%    100.00% |           0      0.00%    100.00% |           0      0.00%    100.00% |           0      0.00%    100.00% |           0      0.00%    100.00% |           0      0.00%    100.00% |           0      0.00%    100.00% |           0      0.00%    100.00%
system.ruby.Locked_RMW_Write.latency_hist_seqr::total           20                      
system.ruby.RMW_Read.hit_latency_hist_seqr::bucket_size            1                      
system.ruby.RMW_Read.hit_latency_hist_seqr::max_bucket            9                      
system.ruby.RMW_Read.hit_latency_hist_seqr::samples          312                      
system.ruby.RMW_Read.hit_latency_hist_seqr |         312    100.00%    100.00% |           0      0.00%    100.00% |           0      0.00%    100.00% |           0      0.00%    100.00% |           0      0.00%    100.00% |           0      0.00%    100.00% |           0      0.00%    100.00% |           0      0.00%    100.00% |           0      0.00%    100.00% |           0      0.00%    100.00%
system.ruby.RMW_Read.hit_latency_hist_seqr::total          312                      
system.ruby.RMW_Read.latency_hist_seqr::bucket_size            1                      
system.ruby.RMW_Read.latency_hist_seqr::max_bucket            9                      
system.ruby.RMW_Read.latency_hist_seqr::samples          314                      
system.ruby.RMW_Read.latency_hist_seqr   |         314    100.00%    100.00% |           0      0.00%    100.00% |           0      0.00%    100.00% |           0      0.00%    100.00% |           0      0.00%    100.00% |           0      0.00%    100.00% |           0      0.00%    100.00% |           0      0.00%    100.00% |           0      0.00%    100.00% |           0      0.00%    100.00%
system.ruby.RMW_Read.latency_hist_seqr::total          314                      
system.ruby.RMW_Read.miss_latency_hist_seqr::bucket_size            1                      
system.ruby.RMW_Read.miss_latency_hist_seqr::max_bucket            9                      
system.ruby.RMW_Read.miss_latency_hist_seqr::samples            2                      
system.ruby.RMW_Read.miss_latency_hist_seqr |           2    100.00%    100.00% |           0      0.00%    100.00% |           0      0.00%    100.00% |           0      0.00%    100.00% |           0      0.00%    100.00% |           0      0.00%    100.00% |           0      0.00%    100.00% |           0      0.00%    100.00% |           0      0.00%    100.00% |           0      0.00%    100.00%
system.ruby.RMW_Read.miss_latency_hist_seqr::total            2                      
system.ruby.ST.hit_latency_hist_seqr::bucket_size            1                      
system.ruby.ST.hit_latency_hist_seqr::max_bucket            9                      
system.ruby.ST.hit_latency_hist_seqr::samples         5146                      
system.ruby.ST.hit_latency_hist_seqr     |        5146    100.00%    100.00% |           0      0.00%    100.00% |           0      0.00%    100.00% |           0      0.00%    100.00% |           0      0.00%    100.00% |           0      0.00%    100.00% |           0      0.00%    100.00% |           0      0.00%    100.00% |           0      0.00%    100.00% |           0      0.00%    100.00%
system.ruby.ST.hit_latency_hist_seqr::total         5146                      
system.ruby.ST.latency_hist_seqr::bucket_size            1                      
system.ruby.ST.latency_hist_seqr::max_bucket            9                      
system.ruby.ST.latency_hist_seqr::samples         5404                      
system.ruby.ST.latency_hist_seqr         |        5404    100.00%    100.00% |           0      0.00%    100.00% |           0      0.00%    100.00% |           0      0.00%    100.00% |           0      0.00%    100.00% |           0      0.00%    100.00% |           0      0.00%    100.00% |           0      0.00%    100.00% |           0      0.00%    100.00% |           0      0.00%    100.00%
system.ruby.ST.latency_hist_seqr::total          5404                      
system.ruby.ST.miss_latency_hist_seqr::bucket_size            1                      
system.ruby.ST.miss_latency_hist_seqr::max_bucket            9                      
system.ruby.ST.miss_latency_hist_seqr::samples          258                      
system.ruby.ST.miss_latency_hist_seqr    |         258    100.00%    100.00% |           0      0.00%    100.00% |           0      0.00%    100.00% |           0      0.00%    100.00% |           0      0.00%    100.00% |           0      0.00%    100.00% |           0      0.00%    100.00% |           0      0.00%    100.00% |           0      0.00%    100.00% |           0      0.00%    100.00%
system.ruby.ST.miss_latency_hist_seqr::total          258                      
system.ruby.acp_cntrl_acc0.sequencer.dcache.demand_accesses            0                       # Number of cache demand accesses
system.ruby.acp_cntrl_acc0.sequencer.dcache.demand_hits            0                       # Number of cache demand hits
system.ruby.acp_cntrl_acc0.sequencer.dcache.demand_misses            0                       # Number of cache demand misses
system.ruby.acp_cntrl_acc0.sequencer.dcache.read_accesses            0                       # Number of cache read accesses
system.ruby.acp_cntrl_acc0.sequencer.dcache.read_hits            0                       # Number of cache read hits
system.ruby.acp_cntrl_acc0.sequencer.dcache.read_misses            0                       # Number of cache read misses
system.ruby.acp_cntrl_acc0.sequencer.dcache.write_accesses            0                       # Number of cache write accesses
system.ruby.acp_cntrl_acc0.sequencer.dcache.write_hits            0                       # Number of cache write hits
system.ruby.acp_cntrl_acc0.sequencer.dcache.write_misses            0                       # Number of cache write misses
system.ruby.acp_cntrl_acc0.sequencer.icache.demand_accesses            0                       # Number of cache demand accesses
system.ruby.acp_cntrl_acc0.sequencer.icache.demand_hits            0                       # Number of cache demand hits
system.ruby.acp_cntrl_acc0.sequencer.icache.demand_misses            0                       # Number of cache demand misses
system.ruby.acp_cntrl_acc0.sequencer.icache.read_accesses            0                       # Number of cache read accesses
system.ruby.acp_cntrl_acc0.sequencer.icache.read_hits            0                       # Number of cache read hits
system.ruby.acp_cntrl_acc0.sequencer.icache.read_misses            0                       # Number of cache read misses
system.ruby.acp_cntrl_acc0.sequencer.icache.write_accesses            0                       # Number of cache write accesses
system.ruby.acp_cntrl_acc0.sequencer.icache.write_hits            0                       # Number of cache write hits
system.ruby.acp_cntrl_acc0.sequencer.icache.write_misses            0                       # Number of cache write misses
system.ruby.acp_cntrl_acc1.sequencer.dcache.demand_accesses            0                       # Number of cache demand accesses
system.ruby.acp_cntrl_acc1.sequencer.dcache.demand_hits            0                       # Number of cache demand hits
system.ruby.acp_cntrl_acc1.sequencer.dcache.demand_misses            0                       # Number of cache demand misses
system.ruby.acp_cntrl_acc1.sequencer.dcache.read_accesses            0                       # Number of cache read accesses
system.ruby.acp_cntrl_acc1.sequencer.dcache.read_hits            0                       # Number of cache read hits
system.ruby.acp_cntrl_acc1.sequencer.dcache.read_misses            0                       # Number of cache read misses
system.ruby.acp_cntrl_acc1.sequencer.dcache.write_accesses            0                       # Number of cache write accesses
system.ruby.acp_cntrl_acc1.sequencer.dcache.write_hits            0                       # Number of cache write hits
system.ruby.acp_cntrl_acc1.sequencer.dcache.write_misses            0                       # Number of cache write misses
system.ruby.acp_cntrl_acc1.sequencer.icache.demand_accesses            0                       # Number of cache demand accesses
system.ruby.acp_cntrl_acc1.sequencer.icache.demand_hits            0                       # Number of cache demand hits
system.ruby.acp_cntrl_acc1.sequencer.icache.demand_misses            0                       # Number of cache demand misses
system.ruby.acp_cntrl_acc1.sequencer.icache.read_accesses            0                       # Number of cache read accesses
system.ruby.acp_cntrl_acc1.sequencer.icache.read_hits            0                       # Number of cache read hits
system.ruby.acp_cntrl_acc1.sequencer.icache.read_misses            0                       # Number of cache read misses
system.ruby.acp_cntrl_acc1.sequencer.icache.write_accesses            0                       # Number of cache write accesses
system.ruby.acp_cntrl_acc1.sequencer.icache.write_hits            0                       # Number of cache write hits
system.ruby.acp_cntrl_acc1.sequencer.icache.write_misses            0                       # Number of cache write misses
system.ruby.acp_cntrl_acc2.sequencer.dcache.demand_accesses            0                       # Number of cache demand accesses
system.ruby.acp_cntrl_acc2.sequencer.dcache.demand_hits            0                       # Number of cache demand hits
system.ruby.acp_cntrl_acc2.sequencer.dcache.demand_misses            0                       # Number of cache demand misses
system.ruby.acp_cntrl_acc2.sequencer.dcache.read_accesses            0                       # Number of cache read accesses
system.ruby.acp_cntrl_acc2.sequencer.dcache.read_hits            0                       # Number of cache read hits
system.ruby.acp_cntrl_acc2.sequencer.dcache.read_misses            0                       # Number of cache read misses
system.ruby.acp_cntrl_acc2.sequencer.dcache.write_accesses            0                       # Number of cache write accesses
system.ruby.acp_cntrl_acc2.sequencer.dcache.write_hits            0                       # Number of cache write hits
system.ruby.acp_cntrl_acc2.sequencer.dcache.write_misses            0                       # Number of cache write misses
system.ruby.acp_cntrl_acc2.sequencer.icache.demand_accesses            0                       # Number of cache demand accesses
system.ruby.acp_cntrl_acc2.sequencer.icache.demand_hits            0                       # Number of cache demand hits
[...]
system.mem_ctrls.wrQLenPdf::2                       1                       # What write queue length does an incoming req see
system.mem_ctrls.wrQLenPdf::3                       1                       # What write queue length does an incoming req see
system.mem_ctrls.wrQLenPdf::4                       1                       # What write queue length does an incoming req see
system.mem_ctrls.wrQLenPdf::5                       1                       # What write queue length does an incoming req see
system.mem_ctrls.wrQLenPdf::6                       1                       # What write queue length does an incoming req see
system.mem_ctrls.wrQLenPdf::7                       1                       # What write queue length does an incoming req see
system.mem_ctrls.wrQLenPdf::8                       1                       # What write queue length does an incoming req see
system.mem_ctrls.wrQLenPdf::9                       1                       # What write queue length does an incoming req see
system.mem_ctrls.wrQLenPdf::10                      1                       # What write queue length does an incoming req see
system.mem_ctrls.wrQLenPdf::11                      1                       # What write queue length does an incoming req see
system.mem_ctrls.wrQLenPdf::12                      1                       # What write queue length does an incoming req see
system.mem_ctrls.wrQLenPdf::13                      1                       # What write queue length does an incoming req see
system.mem_ctrls.wrQLenPdf::14                      1                       # What write queue length does an incoming req see
system.mem_ctrls.wrQLenPdf::15                      4                       # What write queue length does an incoming req see
system.mem_ctrls.wrQLenPdf::16                      4                       # What write queue length does an incoming req see
system.mem_ctrls.wrQLenPdf::17                      4                       # What write queue length does an incoming req see
system.mem_ctrls.wrQLenPdf::18                      4                       # What write queue length does an incoming req see
system.mem_ctrls.wrQLenPdf::19                      4                       # What write queue length does an incoming req see
system.mem_ctrls.wrQLenPdf::20                      4                       # What write queue length does an incoming req see
system.mem_ctrls.wrQLenPdf::21                      4                       # What write queue length does an incoming req see
system.mem_ctrls.wrQLenPdf::22                      4                       # What write queue length does an incoming req see
system.mem_ctrls.wrQLenPdf::23                      4                       # What write queue length does an incoming req see
system.mem_ctrls.wrQLenPdf::24                      4                       # What write queue length does an incoming req see
system.mem_ctrls.wrQLenPdf::25                      4                       # What write queue length does an incoming req see
system.mem_ctrls.wrQLenPdf::26                      4                       # What write queue length does an incoming req see
system.mem_ctrls.wrQLenPdf::27                      4                       # What write queue length does an incoming req see
system.mem_ctrls.wrQLenPdf::28                      4                       # What write queue length does an incoming req see
system.mem_ctrls.wrQLenPdf::29                      6                       # What write queue length does an incoming req see
system.mem_ctrls.wrQLenPdf::30                      7                       # What write queue length does an incoming req see
system.mem_ctrls.wrQLenPdf::31                      5                       # What write queue length does an incoming req see
system.mem_ctrls.wrQLenPdf::32                      9                       # What write queue length does an incoming req see
system.mem_ctrls.wrQLenPdf::33                      8                       # What write queue length does an incoming req see
system.mem_ctrls.wrQLenPdf::34                      6                       # What write queue length does an incoming req see
system.mem_ctrls.wrQLenPdf::35                      3                       # What write queue length does an incoming req see
system.mem_ctrls.wrQLenPdf::36                      3                       # What write queue length does an incoming req see
system.mem_ctrls.wrQLenPdf::37                      1                       # What write queue length does an incoming req see
system.mem_ctrls.wrQLenPdf::38                      1                       # What write queue length does an incoming req see
system.mem_ctrls.wrQLenPdf::39                      1                       # What write queue length does an incoming req see
system.mem_ctrls.wrQLenPdf::40                      1                       # What write queue length does an incoming req see
system.mem_ctrls.wrQLenPdf::41                      1                       # What write queue length does an incoming req see
system.mem_ctrls.wrQLenPdf::42                      1                       # What write queue length does an incoming req see
system.mem_ctrls.wrQLenPdf::43                      1                       # What write queue length does an incoming req see
system.mem_ctrls.wrQLenPdf::44                      1                       # What write queue length does an incoming req see
system.mem_ctrls.wrQLenPdf::45                      1                       # What write queue length does an incoming req see
system.mem_ctrls.wrQLenPdf::46                      1                       # What write queue length does an incoming req see
system.mem_ctrls.wrQLenPdf::47                      0                       # What write queue length does an incoming req see
system.mem_ctrls.wrQLenPdf::48                      0                       # What write queue length does an incoming req see
system.mem_ctrls.wrQLenPdf::49                      0                       # What write queue length does an incoming req see
system.mem_ctrls.wrQLenPdf::50                      0                       # What write queue length does an incoming req see
system.mem_ctrls.wrQLenPdf::51                      0                       # What write queue length does an incoming req see
system.mem_ctrls.wrQLenPdf::52                      0                       # What write queue length does an incoming req see
system.mem_ctrls.wrQLenPdf::53                      0                       # What write queue length does an incoming req see
system.mem_ctrls.wrQLenPdf::54                      0                       # What write queue length does an incoming req see
system.mem_ctrls.wrQLenPdf::55                      0                       # What write queue length does an incoming req see
system.mem_ctrls.wrQLenPdf::56                      0                       # What write queue length does an incoming req see
system.mem_ctrls.wrQLenPdf::57                      0                       # What write queue length does an incoming req see
system.mem_ctrls.wrQLenPdf::58                      0                       # What write queue length does an incoming req see
system.mem_ctrls.wrQLenPdf::59                      0                       # What write queue length does an incoming req see
system.mem_ctrls.wrQLenPdf::60                      0                       # What write queue length does an incoming req see
system.mem_ctrls.wrQLenPdf::61                      0                       # What write queue length does an incoming req see
system.mem_ctrls.wrQLenPdf::62                      0                       # What write queue length does an incoming req see
system.mem_ctrls.wrQLenPdf::63                      0                       # What write queue length does an incoming req see
system.mem_ctrls.bytesPerActivate::samples          211                       # Bytes accessed per row activation
system.mem_ctrls.bytesPerActivate::mean    344.265403                       # Bytes accessed per row activation
system.mem_ctrls.bytesPerActivate::gmean   200.529611                       # Bytes accessed per row activation
system.mem_ctrls.bytesPerActivate::stdev   349.864852                       # Bytes accessed per row activation
system.mem_ctrls.bytesPerActivate::0-127           75     35.55%     35.55% # Bytes accessed per row activation
system.mem_ctrls.bytesPerActivate::128-255           41     19.43%     54.98% # Bytes accessed per row activation
system.mem_ctrls.bytesPerActivate::256-383           23     10.90%     65.88% # Bytes accessed per row activation
system.mem_ctrls.bytesPerActivate::384-511           19      9.00%     74.88% # Bytes accessed per row activation
system.mem_ctrls.bytesPerActivate::512-639            8      3.79%     78.67% # Bytes accessed per row activation
system.mem_ctrls.bytesPerActivate::640-767            4      1.90%     80.57% # Bytes accessed per row activation
system.mem_ctrls.bytesPerActivate::768-895            4      1.90%     82.46% # Bytes accessed per row activation
system.mem_ctrls.bytesPerActivate::896-1023            7      3.32%     85.78% # Bytes accessed per row activation
system.mem_ctrls.bytesPerActivate::1024-1151           30     14.22%    100.00% # Bytes accessed per row activation
system.mem_ctrls.bytesPerActivate::total          211                       # Bytes accessed per row activation
system.mem_ctrls.rdPerTurnAround::samples            3                       # Reads before turning the bus around for writes
system.mem_ctrls.rdPerTurnAround::mean     298.666667                       # Reads before turning the bus around for writes
system.mem_ctrls.rdPerTurnAround::gmean     42.488624                       # Reads before turning the bus around for writes
system.mem_ctrls.rdPerTurnAround::stdev    435.897159                       # Reads before turning the bus around for writes
system.mem_ctrls.rdPerTurnAround::0-31              1     33.33%     33.33% # Reads before turning the bus around for writes
system.mem_ctrls.rdPerTurnAround::96-127            1     33.33%     66.67% # Reads before turning the bus around for writes
system.mem_ctrls.rdPerTurnAround::768-799            1     33.33%    100.00% # Reads before turning the bus around for writes
system.mem_ctrls.rdPerTurnAround::total             3                       # Reads before turning the bus around for writes
system.mem_ctrls.wrPerTurnAround::samples            3                       # Writes before turning the bus around for reads
system.mem_ctrls.wrPerTurnAround::mean      32.333333                       # Writes before turning the bus around for reads
system.mem_ctrls.wrPerTurnAround::gmean     32.329920                       # Writes before turning the bus around for reads
system.mem_ctrls.wrPerTurnAround::stdev      0.577350                       # Writes before turning the bus around for reads
system.mem_ctrls.wrPerTurnAround::32                2     66.67%     66.67% # Writes before turning the bus around for reads
system.mem_ctrls.wrPerTurnAround::33                1     33.33%    100.00% # Writes before turning the bus around for reads
system.mem_ctrls.wrPerTurnAround::total             3                       # Writes before turning the bus around for reads
system.mem_ctrls.bytesReadDRAM                  67904                       # Total number of bytes read from DRAM
system.mem_ctrls.bytesReadWrQ                    6080                       # Total number of bytes read from write queue
system.mem_ctrls.bytesWritten                    6208                       # Total number of bytes written to DRAM
system.mem_ctrls.bytesReadSys                   73984                       # Total read bytes from the system interface side
system.mem_ctrls.bytesWrittenSys                12288                       # Total written bytes from the system interface side
system.mem_ctrls.avgRdBW                      1033.63                       # Average DRAM read bandwidth in MiByte/s
system.mem_ctrls.avgWrBW                        94.50                       # Average achieved write bandwidth in MiByte/s
system.mem_ctrls.avgRdBWSys                   1126.17                       # Average system read bandwidth in MiByte/s
system.mem_ctrls.avgWrBWSys                    187.05                       # Average system write bandwidth in MiByte/s
system.mem_ctrls.peakBW                      12800.00                       # Theoretical peak bandwidth in MiByte/s
system.mem_ctrls.busUtil                         8.81                       # Data bus utilization in percentage
system.mem_ctrls.busUtilRead                     8.08                       # Data bus utilization in percentage for reads
system.mem_ctrls.busUtilWrite                    0.74                       # Data bus utilization in percentage for writes
system.mem_ctrls.totGap                      65686000                       # Total gap between requests
system.mem_ctrls.avgGap                      48728.49                       # Average gap between requests
system.mem_ctrls.masterReadBytes::.ruby.dir_cntrl0        67904                       # Per-master bytes read from memory
system.mem_ctrls.masterWriteBytes::.ruby.dir_cntrl0         6208                       # Per-master bytes write to memory
system.mem_ctrls.masterReadRate::.ruby.dir_cntrl0 1033625085.622954607010                       # Per-master bytes read from memory rate (Bytes/sec)
system.mem_ctrls.masterWriteRate::.ruby.dir_cntrl0 94497298.120100468397                       # Per-master bytes write to memory rate (Bytes/sec)
system.mem_ctrls.masterReadAccesses::.ruby.dir_cntrl0         1156                       # Per-master read serviced memory accesses
system.mem_ctrls.masterWriteAccesses::.ruby.dir_cntrl0          192                       # Per-master write serviced memory accesses
system.mem_ctrls.masterReadTotalLat::.ruby.dir_cntrl0     27993243                       # Per-master read total memory access latency
system.mem_ctrls.masterWriteTotalLat::.ruby.dir_cntrl0    367403500                       # Per-master write total memory access latency
system.mem_ctrls.masterReadAvgLat::.ruby.dir_cntrl0     24215.61                       # Per-master read average memory access latency
system.mem_ctrls.masterWriteAvgLat::.ruby.dir_cntrl0   1913559.90                       # Per-master write average memory access latency
system.mem_ctrls.pageHitRate                    78.97                       # Row buffer hit rate, read and write combined
system.mem_ctrls.rank1.actEnergy               771120                       # Energy for activate commands per rank (pJ)
system.mem_ctrls.rank1.preEnergy               394680                       # Energy for precharge commands per rank (pJ)
system.mem_ctrls.rank1.readEnergy             4790940                       # Energy for read commands per rank (pJ)
system.mem_ctrls.rank1.writeEnergy             506340                       # Energy for write commands per rank (pJ)
system.mem_ctrls.rank1.refreshEnergy     4917120.000000                       # Energy for refresh commands per rank (pJ)
system.mem_ctrls.rank1.actBackEnergy         29174310                       # Energy for active background per rank (pJ)
system.mem_ctrls.rank1.preBackEnergy           659040                       # Energy for precharge background per rank (pJ)
system.mem_ctrls.rank1.actPowerDownEnergy            0                       # Energy for active power-down per rank (pJ)
system.mem_ctrls.rank1.prePowerDownEnergy            0                       # Energy for precharge power-down per rank (pJ)
system.mem_ctrls.rank1.selfRefreshEnergy            0                       # Energy for self refresh per rank (pJ)
system.mem_ctrls.rank1.totalEnergy           41213550                       # Total energy per rank (pJ)
system.mem_ctrls.rank1.averagePower        627.346830                       # Core power per rank (mW)
system.mem_ctrls.rank1.totalIdleTime                0                       # Total Idle time Per DRAM Rank
system.mem_ctrls.rank1.memoryStateTime::IDLE      1452500                       # Time in different power states
system.mem_ctrls.rank1.memoryStateTime::REF      2080000                       # Time in different power states
system.mem_ctrls.rank1.memoryStateTime::SREF            0                       # Time in different power states
system.mem_ctrls.rank1.memoryStateTime::PRE_PDN            0                       # Time in different power states
system.mem_ctrls.rank1.memoryStateTime::ACT     62162500                       # Time in different power states
system.mem_ctrls.rank1.memoryStateTime::ACT_PDN            0                       # Time in different power states
system.mem_ctrls.rank0.actEnergy               792540                       # Energy for activate commands per rank (pJ)
system.mem_ctrls.rank0.preEnergy               406065                       # Energy for precharge commands per rank (pJ)
system.mem_ctrls.rank0.readEnergy             2784600                       # Energy for read commands per rank (pJ)
system.mem_ctrls.rank0.writeEnergy                  0                       # Energy for write commands per rank (pJ)
system.mem_ctrls.rank0.refreshEnergy     4917120.000000                       # Energy for refresh commands per rank (pJ)
system.mem_ctrls.rank0.actBackEnergy         25757160                       # Energy for active background per rank (pJ)
system.mem_ctrls.rank0.preBackEnergy          3536640                       # Energy for precharge background per rank (pJ)
system.mem_ctrls.rank0.actPowerDownEnergy            0                       # Energy for active power-down per rank (pJ)
system.mem_ctrls.rank0.prePowerDownEnergy            0                       # Energy for precharge power-down per rank (pJ)
system.mem_ctrls.rank0.selfRefreshEnergy            0                       # Energy for self refresh per rank (pJ)
system.mem_ctrls.rank0.totalEnergy           38194125                       # Total energy per rank (pJ)
system.mem_ctrls.rank0.averagePower        581.385570                       # Core power per rank (mW)
system.mem_ctrls.rank0.totalIdleTime                0                       # Total Idle time Per DRAM Rank
system.mem_ctrls.rank0.memoryStateTime::IDLE      8915750                       # Time in different power states
system.mem_ctrls.rank0.memoryStateTime::REF      2080000                       # Time in different power states
system.mem_ctrls.rank0.memoryStateTime::SREF            0                       # Time in different power states
system.mem_ctrls.rank0.memoryStateTime::PRE_PDN            0                       # Time in different power states
system.mem_ctrls.rank0.memoryStateTime::ACT     54699250                       # Time in different power states
system.mem_ctrls.rank0.memoryStateTime::ACT_PDN            0                       # Time in different power states
system.cpu_clk_domain.clock                       500                       # Clock period in ticks
system.cpu.pwrStateResidencyTicks::ON        65695000                       # Cumulative time (in ticks) in various power states
system.cpu.dtb.walker.pwrStateResidencyTicks::UNDEFINED     65695000                       # Cumulative time (in ticks) in various power states
system.cpu.interrupts.clk_domain.clock          16000                       # Clock period in ticks
system.cpu.itb.walker.pwrStateResidencyTicks::UNDEFINED     65695000                       # Cumulative time (in ticks) in various power states
system.test_acc3_datapath.pwrStateResidencyTicks::UNDEFINED     65695000                       # Cumulative time (in ticks) in various power states
system.test_acc3_datapath.clk_domain.clock         2000                       # Clock period in ticks

---------- End Simulation Statistics   ----------
