gem5 Simulator System.  http://gem5.org
gem5 is copyrighted software; use the --copyright option for details.

gem5 compiled Dec 15 2022 15:56:59
gem5 started Dec 19 2022 15:32:26
gem5 executing on 1043e16793db, pid 1373
command line: /workspace/gem5-aladdin/build/X86/gem5.opt --debug-flags=Aladdin,HybridDatapath --outdir=outputs /workspace/gem5-aladdin/configs/aladdin/aladdin_se.py --num-cpus=1 --mem-size=4GB --mem-type=LPDDR4_3200_2x16 --cpu-clock=2.5GHz --cpu-type=DerivO3CPU --ruby --access-backing-store --l2_size=2097152 --l2_assoc=16 --cacheline_size=32 --accel_cfg_file=gem5.cfg --fast-forward=10000000000 -c /workspace/smaug/build/bin/smaug -o 'my_model_topo.pbtxt my_model_params.pb --gem5 --debug-level=0 --num-accels=2'

Global frequency set at 1000000000000 ticks per second
-------------------------------
      Setting ScratchPad       
-------------------------------
      0: system: Registered accelerator 3
-------------------------------
      Setting ScratchPad       
-------------------------------
      0: system: Registered accelerator 4
      0: system.acc0_datapath: Registering stats.
      0: system.acc1_datapath: Registering stats.
Switch at instruction count:10000000000
dumpGraph = true
Model topology file: my_model_topo.pbtxt
Model parameters file: my_model_params.pb
Number of accelerators: 2
SMAUG requires the accelerator IDs (configured in the gem5 configuration file) to be monotonically incremented by 1.
======================================================
      Loading the network model...
======================================================
Adding data (Data).
Adding data_1 (Data).
Adding conv (Convolution3d).
Adding max_pool (MaxPooling).
Adding reorder (Reorder).
Adding data_2 (Data).
Adding mat_mul (InnerProduct).
======================================================
      Summary of the network.
======================================================
____________________________________________________________________________________________
Layer (type)                             Output shape                 Parameters  
____________________________________________________________________________________________
data_2 (Data)                            (10, 6272)                       0       
____________________________________________________________________________________________
data_1 (Data)                            (32, 3, 3, 1)                    0       
____________________________________________________________________________________________
data (Data)                              (1, 28, 28, 1)                   0       
____________________________________________________________________________________________
conv (Convolution3d)                     (1, 28, 28, 32)                 288      
____________________________________________________________________________________________
max_pool (MaxPooling)                    (1, 14, 14, 32)                  0       
____________________________________________________________________________________________
reorder (Reorder)                        (1, 6272)                        0       
____________________________________________________________________________________________
mat_mul (InnerProduct)                   (1, 10)                        62720     
____________________________________________________________________________________________
======================================================
      Tiling operators of the network...
======================================================
Tiling conv (Convolution3d).
Tiling data (Data).
Tiling data_1 (Data).
Tiling data_2 (Data).
Tiling mat_mul (InnerProduct).
Tiling max_pool (MaxPooling).
Tiling reorder (Reorder).
Switched CPUS @ tick 30532579000
switching cpus
**** REAL SIMULATION ****
======================================================
      Scheduling operators of the network...
======================================================
Scheduling data (Data).
Scheduling data_1 (Data).
Scheduling data_2 (Data).
Scheduling conv (Convolution3d).
30585215000: system.acc0_datapath: Setting host_inputs to memory type dma.
30585328000: system.acc0_datapath: Setting host_weights to memory type dma.
30585368000: system.acc0_datapath: Setting host_results to memory type dma.
30585448000: system.acc1_datapath: Setting host_inputs to memory type dma.
30585476000: system.acc1_datapath: Setting host_weights to memory type dma.
30585504000: system.acc1_datapath: Setting host_results to memory type dma.
30588789000: system.acc0_datapath: Inserting array label mapping host_results -> vpn 0x3d68a0, size 25088.
30588789000: system.acc0_datapath: Mapping vaddr 0x3d68a0 -> paddr 0x1ae68a0.
30588789000: system.acc0_datapath: Inserting TLB entry vpn 0x3d6000 -> ppn 0x1ae6000.
30588789000: system.acc0_datapath: Mapping vaddr 0x3d78a0 -> paddr 0x1b088a0.
30588789000: system.acc0_datapath: Inserting TLB entry vpn 0x3d7000 -> ppn 0x1b08000.
30588789000: system.acc0_datapath: Mapping vaddr 0x3d88a0 -> paddr 0x1b098a0.
30588789000: system.acc0_datapath: Inserting TLB entry vpn 0x3d8000 -> ppn 0x1b09000.
30588789000: system.acc0_datapath: Mapping vaddr 0x3d98a0 -> paddr 0x1b0a8a0.
30588789000: system.acc0_datapath: Inserting TLB entry vpn 0x3d9000 -> ppn 0x1b0a000.
30588789000: system.acc0_datapath: Mapping vaddr 0x3da8a0 -> paddr 0x1b0b8a0.
30588789000: system.acc0_datapath: Inserting TLB entry vpn 0x3da000 -> ppn 0x1b0b000.
30588789000: system.acc0_datapath: Mapping vaddr 0x3db8a0 -> paddr 0x1b0c8a0.
30588789000: system.acc0_datapath: Inserting TLB entry vpn 0x3db000 -> ppn 0x1b0c000.
30588789000: system.acc0_datapath: Mapping vaddr 0x3dc8a0 -> paddr 0x1b0d8a0.
30588789000: system.acc0_datapath: Inserting TLB entry vpn 0x3dc000 -> ppn 0x1b0d000.
30592100000: system.acc0_datapath: Inserting array label mapping host_inputs -> vpn 0x3b0fc0, size 12544.
30592100000: system.acc0_datapath: Mapping vaddr 0x3b0fc0 -> paddr 0x1ac0fc0.
30592100000: system.acc0_datapath: Inserting TLB entry vpn 0x3b0000 -> ppn 0x1ac0000.
30592100000: system.acc0_datapath: Mapping vaddr 0x3b1fc0 -> paddr 0x1ac1fc0.
30592100000: system.acc0_datapath: Inserting TLB entry vpn 0x3b1000 -> ppn 0x1ac1000.
30592100000: system.acc0_datapath: Mapping vaddr 0x3b2fc0 -> paddr 0x1ac2fc0.
30592100000: system.acc0_datapath: Inserting TLB entry vpn 0x3b2000 -> ppn 0x1ac2000.
30592100000: system.acc0_datapath: Mapping vaddr 0x3b3fc0 -> paddr 0x1ac3fc0.
30592100000: system.acc0_datapath: Inserting TLB entry vpn 0x3b3000 -> ppn 0x1ac3000.
30592100000: system.acc0_datapath: Mapping vaddr 0x3b4fc0 -> paddr 0x1ac4fc0.
30592100000: system.acc0_datapath: Inserting TLB entry vpn 0x3b4000 -> ppn 0x1ac4000.
30593883000: system.acc0_datapath: Inserting array label mapping host_weights -> vpn 0x3a7920, size 4608.
30593883000: system.acc0_datapath: Mapping vaddr 0x3a7920 -> paddr 0x1ab7920.
30593883000: system.acc0_datapath: Inserting TLB entry vpn 0x3a7000 -> ppn 0x1ab7000.
30593883000: system.acc0_datapath: Mapping vaddr 0x3a8920 -> paddr 0x1ab8920.
30593883000: system.acc0_datapath: Inserting TLB entry vpn 0x3a8000 -> ppn 0x1ab8000.
30595499000: system.acc0_datapath: Activating accelerator id 3
-------------------------------
      Generating DDDG          
-------------------------------
-------------------------------
Num of Nodes: 18199217
Num of Edges: 45958571
Num of Reg Edges: 25277465
Num of MEM Edges: 2481898
Num of Control Edges: 18199216
-------------------------------
-------------------------------
    Initializing BaseDatapath      
-------------------------------
 Top level: smv_conv3d_nhwc_vec_fxp
=============================================
      Optimizing...            ./outputs/nnet_fwd
=============================================
-------------------------------
  Remove PHI and Convert Nodes 
-------------------------------
  Removing 17976455 edges.
  Adding 13077562 new edges.
  Removing 240543 isolated nodes.
-------------------------------
  Remove Induction Dependence  
-------------------------------
-------------------------------
       Init Base Address       
-------------------------------
-------------------------------
     Init DMA Base Address     
-------------------------------
-------------------------------
        Mem to Reg Conv        
-------------------------------
-------------------------------
      ScratchPad Partition     
-------------------------------
-------------------------------
         Loop Flatten          
-------------------------------
  Removing 2357604 isolated nodes.
  Removing 2343484 isolated nodes.
-------------------------------
         Loop Unrolling        
-------------------------------
  Adding 24052949 new edges.
  Removing 3682 isolated nodes.
  Removing 1372 isolated nodes.
-------------------------------
          Load Buffer          
-------------------------------
  Adding 395136 new edges.
  Removing 2370816 edges.
  Removing 395136 isolated nodes.
-------------------------------
          Store Buffer         
-------------------------------
  Adding 1489232 new edges.
  Removing 465032 isolated nodes.
  Removing 803720 isolated nodes.
-------------------------------
    Remove Repeated Stores     
-------------------------------
-------------------------------
      Memory Ambiguation       
-------------------------------
  Adding 1004 new edges.
-------------------------------
     Tree Height Reduction     
-------------------------------
  Removing 2483724 edges.
  Adding 2483724 new edges.
  Removing 0 isolated nodes.
-------------------------------
  Fuse register loads/stores   
-------------------------------
  Removing 2476059 edges.
  Adding 2476059 new edges.
  Removing 0 isolated nodes.
-------------------------------
   Fuse consecutive branches   
-------------------------------
  Removing 2358156 edges.
  Adding 2358156 new edges.
  Removing 0 isolated nodes.
-------------------------------
      Per Loop Pipelining      
-------------------------------
  Adding 9593126 new edges.
  Removing 9621382 edges.
  Removing 0 isolated nodes.
-------------------------------
         Loop Pipelining        
-------------------------------
=============================================
      Scheduling...            ./outputs/nnet_fwd
=============================================
  Total connected nodes: 9972199
  Total edges: 42229944
=============================================
30595509000: system.acc0_datapath: Scheduling DMA load operation with node id 114 with delay 1536000
30597045000: system.acc0_datapath: Adding DMA node 114 to DMA issue queue.
30597045000: system.acc0_datapath: issueDmaRequest: src_addr: 0x169cdc0, dst_addr: 0x16b2640, size: 4096
30597045000: system.acc0_datapath: DMA Accesses: array label inputs
30597045000: system.acc0_datapath: Increment the dmaLoad accesses of partition inputs with size 4096. 
30597134501: system.acc0_datapath: Receiving DMA response for node 114, address 0x16b2640 with label inputs and size 32.
30597139501: system.acc0_datapath: Receiving DMA response for node 114, address 0x16b2660 with label inputs and size 32.
30597144501: system.acc0_datapath: Receiving DMA response for node 114, address 0x16b2680 with label inputs and size 32.
30597149501: system.acc0_datapath: Receiving DMA response for node 114, address 0x16b26a0 with label inputs and size 32.
30597154501: system.acc0_datapath: Receiving DMA response for node 114, address 0x16b26c0 with label inputs and size 32.
30597159501: system.acc0_datapath: Receiving DMA response for node 114, address 0x16b26e0 with label inputs and size 32.
30597164501: system.acc0_datapath: Receiving DMA response for node 114, address 0x16b2700 with label inputs and size 32.
30597169501: system.acc0_datapath: Receiving DMA response for node 114, address 0x16b2720 with label inputs and size 32.
30597174501: system.acc0_datapath: Receiving DMA response for node 114, address 0x16b2740 with label inputs and size 32.
30597179501: system.acc0_datapath: Receiving DMA response for node 114, address 0x16b2760 with label inputs and size 32.
30597184501: system.acc0_datapath: Receiving DMA response for node 114, address 0x16b2780 with label inputs and size 32.
30597189501: system.acc0_datapath: Receiving DMA response for node 114, address 0x16b27a0 with label inputs and size 32.
30597194501: system.acc0_datapath: Receiving DMA response for node 114, address 0x16b27c0 with label inputs and size 32.
30597199501: system.acc0_datapath: Receiving DMA response for node 114, address 0x16b27e0 with label inputs and size 32.
30597204501: system.acc0_datapath: Receiving DMA response for node 114, address 0x16b2800 with label inputs and size 32.
30597209501: system.acc0_datapath: Receiving DMA response for node 114, address 0x16b2820 with label inputs and size 32.
30597229501: system.acc0_datapath: Receiving DMA response for node 114, address 0x16b2840 with label inputs and size 32.
30597234501: system.acc0_datapath: Receiving DMA response for node 114, address 0x16b2860 with label inputs and size 32.
30597278001: system.acc0_datapath: Receiving DMA response for node 114, address 0x16b2880 with label inputs and size 32.
30597283001: system.acc0_datapath: Receiving DMA response for node 114, address 0x16b28a0 with label inputs and size 32.
30597288001: system.acc0_datapath: Receiving DMA response for node 114, address 0x16b28c0 with label inputs and size 32.
30597293001: system.acc0_datapath: Receiving DMA response for node 114, address 0x16b28e0 with label inputs and size 32.
30597298001: system.acc0_datapath: Receiving DMA response for node 114, address 0x16b2900 with label inputs and size 32.
30597303001: system.acc0_datapath: Receiving DMA response for node 114, address 0x16b2920 with label inputs and size 32.
30597308001: system.acc0_datapath: Receiving DMA response for node 114, address 0x16b2940 with label inputs and size 32.
30597313001: system.acc0_datapath: Receiving DMA response for node 114, address 0x16b2960 with label inputs and size 32.
30597318001: system.acc0_datapath: Receiving DMA response for node 114, address 0x16b2980 with label inputs and size 32.
30597323001: system.acc0_datapath: Receiving DMA response for node 114, address 0x16b29a0 with label inputs and size 32.
30597328001: system.acc0_datapath: Receiving DMA response for node 114, address 0x16b29c0 with label inputs and size 32.
30597333001: system.acc0_datapath: Receiving DMA response for node 114, address 0x16b29e0 with label inputs and size 32.
30597338001: system.acc0_datapath: Receiving DMA response for node 114, address 0x16b2a00 with label inputs and size 32.
30597343001: system.acc0_datapath: Receiving DMA response for node 114, address 0x16b2a20 with label inputs and size 32.
30597348001: system.acc0_datapath: Receiving DMA response for node 114, address 0x16b2a40 with label inputs and size 32.
30597353001: system.acc0_datapath: Receiving DMA response for node 114, address 0x16b2a60 with label inputs and size 32.
30597396501: system.acc0_datapath: Receiving DMA response for node 114, address 0x16b2a80 with label inputs and size 32.
30597401501: system.acc0_datapath: Receiving DMA response for node 114, address 0x16b2aa0 with label inputs and size 32.
30597406501: system.acc0_datapath: Receiving DMA response for node 114, address 0x16b2ac0 with label inputs and size 32.
30597411501: system.acc0_datapath: Receiving DMA response for node 114, address 0x16b2ae0 with label inputs and size 32.
30597416501: system.acc0_datapath: Receiving DMA response for node 114, address 0x16b2b00 with label inputs and size 32.
30597421501: system.acc0_datapath: Receiving DMA response for node 114, address 0x16b2b20 with label inputs and size 32.
30597426501: system.acc0_datapath: Receiving DMA response for node 114, address 0x16b2b40 with label inputs and size 32.
30597431501: system.acc0_datapath: Receiving DMA response for node 114, address 0x16b2b60 with label inputs and size 32.
30597436501: system.acc0_datapath: Receiving DMA response for node 114, address 0x16b2b80 with label inputs and size 32.
30597441501: system.acc0_datapath: Receiving DMA response for node 114, address 0x16b2ba0 with label inputs and size 32.
30597446501: system.acc0_datapath: Receiving DMA response for node 114, address 0x16b2bc0 with label inputs and size 32.
30597451501: system.acc0_datapath: Receiving DMA response for node 114, address 0x16b2be0 with label inputs and size 32.
30597456501: system.acc0_datapath: Receiving DMA response for node 114, address 0x16b2c00 with label inputs and size 32.
30597461501: system.acc0_datapath: Receiving DMA response for node 114, address 0x16b2c20 with label inputs and size 32.
30597466501: system.acc0_datapath: Receiving DMA response for node 114, address 0x16b2c40 with label inputs and size 32.
30597471501: system.acc0_datapath: Receiving DMA response for node 114, address 0x16b2c60 with label inputs and size 32.
30597510000: system.acc0_datapath: Queuing command InsertAddressTranslationMapping command on accelerator 3.
30597510000: system.acc0_datapath: Queuing command InsertArrayLabelMapping command on accelerator 3.
30597510000: system.acc0_datapath: Queuing command InsertArrayLabelMapping command on accelerator 3.
30597510000: system.acc0_datapath: Queuing command InsertArrayLabelMapping command on accelerator 3.
30597510000: system.acc0_datapath: Queuing command InsertArrayLabelMapping command on accelerator 3.
30597510000: system.acc0_datapath: Queuing command InsertArrayLabelMapping command on accelerator 3.
30597510000: system.acc0_datapath: Queuing command InsertArrayLabelMapping command on accelerator 3.
30597510000: system.acc0_datapath: Queuing command InsertArrayLabelMapping command on accelerator 3.
30597515001: system.acc0_datapath: Receiving DMA response for node 114, address 0x16b2c80 with label inputs and size 32.
30597520001: system.acc0_datapath: Receiving DMA response for node 114, address 0x16b2ca0 with label inputs and size 32.
30597525001: system.acc0_datapath: Receiving DMA response for node 114, address 0x16b2cc0 with label inputs and size 32.
30597530001: system.acc0_datapath: Receiving DMA response for node 114, address 0x16b2ce0 with label inputs and size 32.
30597535001: system.acc0_datapath: Receiving DMA response for node 114, address 0x16b2d00 with label inputs and size 32.
30597540001: system.acc0_datapath: Receiving DMA response for node 114, address 0x16b2d20 with label inputs and size 32.
30597545001: system.acc0_datapath: Receiving DMA response for node 114, address 0x16b2d40 with label inputs and size 32.
30597550001: system.acc0_datapath: Receiving DMA response for node 114, address 0x16b2d60 with label inputs and size 32.
30597555001: system.acc0_datapath: Receiving DMA response for node 114, address 0x16b2d80 with label inputs and size 32.
30597560001: system.acc0_datapath: Receiving DMA response for node 114, address 0x16b2da0 with label inputs and size 32.
30597565001: system.acc0_datapath: Receiving DMA response for node 114, address 0x16b2dc0 with label inputs and size 32.
30597570001: system.acc0_datapath: Receiving DMA response for node 114, address 0x16b2de0 with label inputs and size 32.
30597575001: system.acc0_datapath: Receiving DMA response for node 114, address 0x16b2e00 with label inputs and size 32.
30597580001: system.acc0_datapath: Receiving DMA response for node 114, address 0x16b2e20 with label inputs and size 32.
30597585001: system.acc0_datapath: Receiving DMA response for node 114, address 0x16b2e40 with label inputs and size 32.
30597590001: system.acc0_datapath: Receiving DMA response for node 114, address 0x16b2e60 with label inputs and size 32.
30597633501: system.acc0_datapath: Receiving DMA response for node 114, address 0x16b2e80 with label inputs and size 32.
30597638501: system.acc0_datapath: Receiving DMA response for node 114, address 0x16b2ea0 with label inputs and size 32.
30597643501: system.acc0_datapath: Receiving DMA response for node 114, address 0x16b2ec0 with label inputs and size 32.
30597648501: system.acc0_datapath: Receiving DMA response for node 114, address 0x16b2ee0 with label inputs and size 32.
30597653501: system.acc0_datapath: Receiving DMA response for node 114, address 0x16b2f00 with label inputs and size 32.
30597658501: system.acc0_datapath: Receiving DMA response for node 114, address 0x16b2f20 with label inputs and size 32.
30597663501: system.acc0_datapath: Receiving DMA response for node 114, address 0x16b2f40 with label inputs and size 32.
30597668501: system.acc0_datapath: Receiving DMA response for node 114, address 0x16b2f60 with label inputs and size 32.
30597673501: system.acc0_datapath: Receiving DMA response for node 114, address 0x16b2f80 with label inputs and size 32.
30597678501: system.acc0_datapath: Receiving DMA response for node 114, address 0x16b2fa0 with label inputs and size 32.
30597683501: system.acc0_datapath: Receiving DMA response for node 114, address 0x16b2fc0 with label inputs and size 32.
30597688501: system.acc0_datapath: Receiving DMA response for node 114, address 0x16b2fe0 with label inputs and size 32.
30597693501: system.acc0_datapath: Receiving DMA response for node 114, address 0x16b3000 with label inputs and size 32.
30597698501: system.acc0_datapath: Receiving DMA response for node 114, address 0x16b3020 with label inputs and size 32.
30597703501: system.acc0_datapath: Receiving DMA response for node 114, address 0x16b3040 with label inputs and size 32.
30597708501: system.acc0_datapath: Receiving DMA response for node 114, address 0x16b3060 with label inputs and size 32.
30597752001: system.acc0_datapath: Receiving DMA response for node 114, address 0x16b3080 with label inputs and size 32.
30597757001: system.acc0_datapath: Receiving DMA response for node 114, address 0x16b30a0 with label inputs and size 32.
30597762001: system.acc0_datapath: Receiving DMA response for node 114, address 0x16b30c0 with label inputs and size 32.
30597767001: system.acc0_datapath: Receiving DMA response for node 114, address 0x16b30e0 with label inputs and size 32.
30597772001: system.acc0_datapath: Receiving DMA response for node 114, address 0x16b3100 with label inputs and size 32.
30597777001: system.acc0_datapath: Receiving DMA response for node 114, address 0x16b3120 with label inputs and size 32.
30597782001: system.acc0_datapath: Receiving DMA response for node 114, address 0x16b3140 with label inputs and size 32.
30597787001: system.acc0_datapath: Receiving DMA response for node 114, address 0x16b3160 with label inputs and size 32.
30597792001: system.acc0_datapath: Receiving DMA response for node 114, address 0x16b3180 with label inputs and size 32.
30597797001: system.acc0_datapath: Receiving DMA response for node 114, address 0x16b31a0 with label inputs and size 32.
30597802001: system.acc0_datapath: Receiving DMA response for node 114, address 0x16b31c0 with label inputs and size 32.
30597807001: system.acc0_datapath: Receiving DMA response for node 114, address 0x16b31e0 with label inputs and size 32.
30597812001: system.acc0_datapath: Receiving DMA response for node 114, address 0x16b3200 with label inputs and size 32.
30597817001: system.acc0_datapath: Receiving DMA response for node 114, address 0x16b3220 with label inputs and size 32.
30597822001: system.acc0_datapath: Receiving DMA response for node 114, address 0x16b3240 with label inputs and size 32.
30597827001: system.acc0_datapath: Receiving DMA response for node 114, address 0x16b3260 with label inputs and size 32.
30597870501: system.acc0_datapath: Receiving DMA response for node 114, address 0x16b3280 with label inputs and size 32.
30597875501: system.acc0_datapath: Receiving DMA response for node 114, address 0x16b32a0 with label inputs and size 32.
30597880501: system.acc0_datapath: Receiving DMA response for node 114, address 0x16b32c0 with label inputs and size 32.
30597885501: system.acc0_datapath: Receiving DMA response for node 114, address 0x16b32e0 with label inputs and size 32.
30597890501: system.acc0_datapath: Receiving DMA response for node 114, address 0x16b3300 with label inputs and size 32.
30597895501: system.acc0_datapath: Receiving DMA response for node 114, address 0x16b3320 with label inputs and size 32.
30597900501: system.acc0_datapath: Receiving DMA response for node 114, address 0x16b3340 with label inputs and size 32.
30597905501: system.acc0_datapath: Receiving DMA response for node 114, address 0x16b3360 with label inputs and size 32.
30597910501: system.acc0_datapath: Receiving DMA response for node 114, address 0x16b3380 with label inputs and size 32.
30597915501: system.acc0_datapath: Receiving DMA response for node 114, address 0x16b33a0 with label inputs and size 32.
30597920501: system.acc0_datapath: Receiving DMA response for node 114, address 0x16b33c0 with label inputs and size 32.
30597925501: system.acc0_datapath: Receiving DMA response for node 114, address 0x16b33e0 with label inputs and size 32.
30597930501: system.acc0_datapath: Receiving DMA response for node 114, address 0x16b3400 with label inputs and size 32.
30597935501: system.acc0_datapath: Receiving DMA response for node 114, address 0x16b3420 with label inputs and size 32.
30597940501: system.acc0_datapath: Receiving DMA response for node 114, address 0x16b3440 with label inputs and size 32.
30597945501: system.acc0_datapath: Receiving DMA response for node 114, address 0x16b3460 with label inputs and size 32.
30597989001: system.acc0_datapath: Receiving DMA response for node 114, address 0x16b3480 with label inputs and size 32.
30597994001: system.acc0_datapath: Receiving DMA response for node 114, address 0x16b34a0 with label inputs and size 32.
30597999001: system.acc0_datapath: Receiving DMA response for node 114, address 0x16b34c0 with label inputs and size 32.
30598004001: system.acc0_datapath: Receiving DMA response for node 114, address 0x16b34e0 with label inputs and size 32.
30598009001: system.acc0_datapath: Receiving DMA response for node 114, address 0x16b3500 with label inputs and size 32.
30598014001: system.acc0_datapath: Receiving DMA response for node 114, address 0x16b3520 with label inputs and size 32.
30598019001: system.acc0_datapath: Receiving DMA response for node 114, address 0x16b3540 with label inputs and size 32.
30598024001: system.acc0_datapath: Receiving DMA response for node 114, address 0x16b3560 with label inputs and size 32.
30598029001: system.acc0_datapath: Receiving DMA response for node 114, address 0x16b3580 with label inputs and size 32.
30598034001: system.acc0_datapath: Receiving DMA response for node 114, address 0x16b35a0 with label inputs and size 32.
30598039001: system.acc0_datapath: Receiving DMA response for node 114, address 0x16b35c0 with label inputs and size 32.
30598044001: system.acc0_datapath: Receiving DMA response for node 114, address 0x16b35e0 with label inputs and size 32.
30598049001: system.acc0_datapath: Receiving DMA response for node 114, address 0x16b3600 with label inputs and size 32.
30598054001: system.acc0_datapath: Receiving DMA response for node 114, address 0x16b3620 with label inputs and size 32.
30598054001: system.acc0_datapath: dmaCompleteCallback for node 114.
30598117000: system.acc0_datapath: Queuing command InsertAddressTranslationMapping command on accelerator 3.
30598117000: system.acc0_datapath: Queuing command InsertArrayLabelMapping command on accelerator 3.
30598117000: system.acc0_datapath: Queuing command InsertArrayLabelMapping command on accelerator 3.
30598117000: system.acc0_datapath: Queuing command InsertArrayLabelMapping command on accelerator 3.
30598117000: system.acc0_datapath: Queuing command InsertArrayLabelMapping command on accelerator 3.
30598117000: system.acc0_datapath: Queuing command InsertArrayLabelMapping command on accelerator 3.
30598440000: system.acc0_datapath: Scheduling DMA load operation with node id 2964 with delay 1536000
30598506000: system.acc0_datapath: Queuing command InsertAddressTranslationMapping command on accelerator 3.
30598506000: system.acc0_datapath: Queuing command InsertArrayLabelMapping command on accelerator 3.
30598506000: system.acc0_datapath: Queuing command InsertArrayLabelMapping command on accelerator 3.
30598761000: system.acc0_datapath: Queuing command ActivateAccelerator command on accelerator 3.
30599976000: system.acc0_datapath: Adding DMA node 2964 to DMA issue queue.
30599976000: system.acc0_datapath: issueDmaRequest: src_addr: 0x169ddc0, dst_addr: 0x16b4640, size: 4096
30599976000: system.acc0_datapath: DMA Accesses: array label inputs
30599976000: system.acc0_datapath: Increment the dmaLoad accesses of partition inputs with size 4096. 
30600047501: system.acc0_datapath: Receiving DMA response for node 2964, address 0x16b4640 with label inputs and size 32.
30600052501: system.acc0_datapath: Receiving DMA response for node 2964, address 0x16b4660 with label inputs and size 32.
30600057501: system.acc0_datapath: Receiving DMA response for node 2964, address 0x16b4680 with label inputs and size 32.
30600062501: system.acc0_datapath: Receiving DMA response for node 2964, address 0x16b46a0 with label inputs and size 32.
30600067501: system.acc0_datapath: Receiving DMA response for node 2964, address 0x16b46c0 with label inputs and size 32.
30600072501: system.acc0_datapath: Receiving DMA response for node 2964, address 0x16b46e0 with label inputs and size 32.
30600077501: system.acc0_datapath: Receiving DMA response for node 2964, address 0x16b4700 with label inputs and size 32.
30600082501: system.acc0_datapath: Receiving DMA response for node 2964, address 0x16b4720 with label inputs and size 32.
30600087501: system.acc0_datapath: Receiving DMA response for node 2964, address 0x16b4740 with label inputs and size 32.
30600092501: system.acc0_datapath: Receiving DMA response for node 2964, address 0x16b4760 with label inputs and size 32.
30600097501: system.acc0_datapath: Receiving DMA response for node 2964, address 0x16b4780 with label inputs and size 32.
30600102501: system.acc0_datapath: Receiving DMA response for node 2964, address 0x16b47a0 with label inputs and size 32.
30600107501: system.acc0_datapath: Receiving DMA response for node 2964, address 0x16b47c0 with label inputs and size 32.
30600112501: system.acc0_datapath: Receiving DMA response for node 2964, address 0x16b47e0 with label inputs and size 32.
30600117501: system.acc0_datapath: Receiving DMA response for node 2964, address 0x16b4800 with label inputs and size 32.
30600122501: system.acc0_datapath: Receiving DMA response for node 2964, address 0x16b4820 with label inputs and size 32.
30600127501: system.acc0_datapath: Receiving DMA response for node 2964, address 0x16b4840 with label inputs and size 32.
30600132501: system.acc0_datapath: Receiving DMA response for node 2964, address 0x16b4860 with label inputs and size 32.
30600176001: system.acc0_datapath: Receiving DMA response for node 2964, address 0x16b4880 with label inputs and size 32.
30600181001: system.acc0_datapath: Receiving DMA response for node 2964, address 0x16b48a0 with label inputs and size 32.
30600186001: system.acc0_datapath: Receiving DMA response for node 2964, address 0x16b48c0 with label inputs and size 32.
30600191001: system.acc0_datapath: Receiving DMA response for node 2964, address 0x16b48e0 with label inputs and size 32.
30600196001: system.acc0_datapath: Receiving DMA response for node 2964, address 0x16b4900 with label inputs and size 32.
30600201001: system.acc0_datapath: Receiving DMA response for node 2964, address 0x16b4920 with label inputs and size 32.
30600206001: system.acc0_datapath: Receiving DMA response for node 2964, address 0x16b4940 with label inputs and size 32.
30600211001: system.acc0_datapath: Receiving DMA response for node 2964, address 0x16b4960 with label inputs and size 32.
30600216001: system.acc0_datapath: Receiving DMA response for node 2964, address 0x16b4980 with label inputs and size 32.
30600221001: system.acc0_datapath: Receiving DMA response for node 2964, address 0x16b49a0 with label inputs and size 32.
30600226001: system.acc0_datapath: Receiving DMA response for node 2964, address 0x16b49c0 with label inputs and size 32.
30600231001: system.acc0_datapath: Receiving DMA response for node 2964, address 0x16b49e0 with label inputs and size 32.
30600236001: system.acc0_datapath: Receiving DMA response for node 2964, address 0x16b4a00 with label inputs and size 32.
30600241001: system.acc0_datapath: Receiving DMA response for node 2964, address 0x16b4a20 with label inputs and size 32.
30600246001: system.acc0_datapath: Receiving DMA response for node 2964, address 0x16b4a40 with label inputs and size 32.
30600251001: system.acc0_datapath: Receiving DMA response for node 2964, address 0x16b4a60 with label inputs and size 32.
30600294501: system.acc0_datapath: Receiving DMA response for node 2964, address 0x16b4a80 with label inputs and size 32.
30600299501: system.acc0_datapath: Receiving DMA response for node 2964, address 0x16b4aa0 with label inputs and size 32.
30600304501: system.acc0_datapath: Receiving DMA response for node 2964, address 0x16b4ac0 with label inputs and size 32.
30600309501: system.acc0_datapath: Receiving DMA response for node 2964, address 0x16b4ae0 with label inputs and size 32.
30600314501: system.acc0_datapath: Receiving DMA response for node 2964, address 0x16b4b00 with label inputs and size 32.
30600319501: system.acc0_datapath: Receiving DMA response for node 2964, address 0x16b4b20 with label inputs and size 32.
30600324501: system.acc0_datapath: Receiving DMA response for node 2964, address 0x16b4b40 with label inputs and size 32.
30600329501: system.acc0_datapath: Receiving DMA response for node 2964, address 0x16b4b60 with label inputs and size 32.
30600334501: system.acc0_datapath: Receiving DMA response for node 2964, address 0x16b4b80 with label inputs and size 32.
30600339501: system.acc0_datapath: Receiving DMA response for node 2964, address 0x16b4ba0 with label inputs and size 32.
30600344501: system.acc0_datapath: Receiving DMA response for node 2964, address 0x16b4bc0 with label inputs and size 32.
30600349501: system.acc0_datapath: Receiving DMA response for node 2964, address 0x16b4be0 with label inputs and size 32.
30600354501: system.acc0_datapath: Receiving DMA response for node 2964, address 0x16b4c00 with label inputs and size 32.
30600359501: system.acc0_datapath: Receiving DMA response for node 2964, address 0x16b4c20 with label inputs and size 32.
30600364501: system.acc0_datapath: Receiving DMA response for node 2964, address 0x16b4c40 with label inputs and size 32.
30600369501: system.acc0_datapath: Receiving DMA response for node 2964, address 0x16b4c60 with label inputs and size 32.
30600413001: system.acc0_datapath: Receiving DMA response for node 2964, address 0x16b4c80 with label inputs and size 32.
30600418001: system.acc0_datapath: Receiving DMA response for node 2964, address 0x16b4ca0 with label inputs and size 32.
30600423001: system.acc0_datapath: Receiving DMA response for node 2964, address 0x16b4cc0 with label inputs and size 32.
30600428001: system.acc0_datapath: Receiving DMA response for node 2964, address 0x16b4ce0 with label inputs and size 32.
30600433001: system.acc0_datapath: Receiving DMA response for node 2964, address 0x16b4d00 with label inputs and size 32.
30600438001: system.acc0_datapath: Receiving DMA response for node 2964, address 0x16b4d20 with label inputs and size 32.
30600443001: system.acc0_datapath: Receiving DMA response for node 2964, address 0x16b4d40 with label inputs and size 32.
30600448001: system.acc0_datapath: Receiving DMA response for node 2964, address 0x16b4d60 with label inputs and size 32.
30600453001: system.acc0_datapath: Receiving DMA response for node 2964, address 0x16b4d80 with label inputs and size 32.
30600458001: system.acc0_datapath: Receiving DMA response for node 2964, address 0x16b4da0 with label inputs and size 32.
30600463001: system.acc0_datapath: Receiving DMA response for node 2964, address 0x16b4dc0 with label inputs and size 32.
30600468001: system.acc0_datapath: Receiving DMA response for node 2964, address 0x16b4de0 with label inputs and size 32.
30600473001: system.acc0_datapath: Receiving DMA response for node 2964, address 0x16b4e00 with label inputs and size 32.
30600478001: system.acc0_datapath: Receiving DMA response for node 2964, address 0x16b4e20 with label inputs and size 32.
30600483001: system.acc0_datapath: Receiving DMA response for node 2964, address 0x16b4e40 with label inputs and size 32.
30600488001: system.acc0_datapath: Receiving DMA response for node 2964, address 0x16b4e60 with label inputs and size 32.
30600531501: system.acc0_datapath: Receiving DMA response for node 2964, address 0x16b4e80 with label inputs and size 32.
30600536501: system.acc0_datapath: Receiving DMA response for node 2964, address 0x16b4ea0 with label inputs and size 32.
30600541501: system.acc0_datapath: Receiving DMA response for node 2964, address 0x16b4ec0 with label inputs and size 32.
30600546501: system.acc0_datapath: Receiving DMA response for node 2964, address 0x16b4ee0 with label inputs and size 32.
30600551501: system.acc0_datapath: Receiving DMA response for node 2964, address 0x16b4f00 with label inputs and size 32.
30600556501: system.acc0_datapath: Receiving DMA response for node 2964, address 0x16b4f20 with label inputs and size 32.
30600561501: system.acc0_datapath: Receiving DMA response for node 2964, address 0x16b4f40 with label inputs and size 32.
30600566501: system.acc0_datapath: Receiving DMA response for node 2964, address 0x16b4f60 with label inputs and size 32.
30600571501: system.acc0_datapath: Receiving DMA response for node 2964, address 0x16b4f80 with label inputs and size 32.
30600576501: system.acc0_datapath: Receiving DMA response for node 2964, address 0x16b4fa0 with label inputs and size 32.
30600581501: system.acc0_datapath: Receiving DMA response for node 2964, address 0x16b4fc0 with label inputs and size 32.
30600586501: system.acc0_datapath: Receiving DMA response for node 2964, address 0x16b4fe0 with label inputs and size 32.
30600591501: system.acc0_datapath: Receiving DMA response for node 2964, address 0x16b5000 with label inputs and size 32.
30600596501: system.acc0_datapath: Receiving DMA response for node 2964, address 0x16b5020 with label inputs and size 32.
30600601501: system.acc0_datapath: Receiving DMA response for node 2964, address 0x16b5040 with label inputs and size 32.
30600606501: system.acc0_datapath: Receiving DMA response for node 2964, address 0x16b5060 with label inputs and size 32.
30600650001: system.acc0_datapath: Receiving DMA response for node 2964, address 0x16b5080 with label inputs and size 32.
30600655001: system.acc0_datapath: Receiving DMA response for node 2964, address 0x16b50a0 with label inputs and size 32.
30600660001: system.acc0_datapath: Receiving DMA response for node 2964, address 0x16b50c0 with label inputs and size 32.
30600665001: system.acc0_datapath: Receiving DMA response for node 2964, address 0x16b50e0 with label inputs and size 32.
30600670001: system.acc0_datapath: Receiving DMA response for node 2964, address 0x16b5100 with label inputs and size 32.
30600675001: system.acc0_datapath: Receiving DMA response for node 2964, address 0x16b5120 with label inputs and size 32.
30600680001: system.acc0_datapath: Receiving DMA response for node 2964, address 0x16b5140 with label inputs and size 32.
30600685001: system.acc0_datapath: Receiving DMA response for node 2964, address 0x16b5160 with label inputs and size 32.
30600690001: system.acc0_datapath: Receiving DMA response for node 2964, address 0x16b5180 with label inputs and size 32.
30600695001: system.acc0_datapath: Receiving DMA response for node 2964, address 0x16b51a0 with label inputs and size 32.
30600700001: system.acc0_datapath: Receiving DMA response for node 2964, address 0x16b51c0 with label inputs and size 32.
30600705001: system.acc0_datapath: Receiving DMA response for node 2964, address 0x16b51e0 with label inputs and size 32.
30600710001: system.acc0_datapath: Receiving DMA response for node 2964, address 0x16b5200 with label inputs and size 32.
30600715001: system.acc0_datapath: Receiving DMA response for node 2964, address 0x16b5220 with label inputs and size 32.
30600720001: system.acc0_datapath: Receiving DMA response for node 2964, address 0x16b5240 with label inputs and size 32.
30600725001: system.acc0_datapath: Receiving DMA response for node 2964, address 0x16b5260 with label inputs and size 32.
30600768501: system.acc0_datapath: Receiving DMA response for node 2964, address 0x16b5280 with label inputs and size 32.
30600773501: system.acc0_datapath: Receiving DMA response for node 2964, address 0x16b52a0 with label inputs and size 32.
30600778501: system.acc0_datapath: Receiving DMA response for node 2964, address 0x16b52c0 with label inputs and size 32.
30600783501: system.acc0_datapath: Receiving DMA response for node 2964, address 0x16b52e0 with label inputs and size 32.
30600788501: system.acc0_datapath: Receiving DMA response for node 2964, address 0x16b5300 with label inputs and size 32.
30600793501: system.acc0_datapath: Receiving DMA response for node 2964, address 0x16b5320 with label inputs and size 32.
30600798501: system.acc0_datapath: Receiving DMA response for node 2964, address 0x16b5340 with label inputs and size 32.
30600803501: system.acc0_datapath: Receiving DMA response for node 2964, address 0x16b5360 with label inputs and size 32.
30600808501: system.acc0_datapath: Receiving DMA response for node 2964, address 0x16b5380 with label inputs and size 32.
30600813501: system.acc0_datapath: Receiving DMA response for node 2964, address 0x16b53a0 with label inputs and size 32.
30600818501: system.acc0_datapath: Receiving DMA response for node 2964, address 0x16b53c0 with label inputs and size 32.
30600823501: system.acc0_datapath: Receiving DMA response for node 2964, address 0x16b53e0 with label inputs and size 32.
30600828501: system.acc0_datapath: Receiving DMA response for node 2964, address 0x16b5400 with label inputs and size 32.
30600833501: system.acc0_datapath: Receiving DMA response for node 2964, address 0x16b5420 with label inputs and size 32.
30600838501: system.acc0_datapath: Receiving DMA response for node 2964, address 0x16b5440 with label inputs and size 32.
30600843501: system.acc0_datapath: Receiving DMA response for node 2964, address 0x16b5460 with label inputs and size 32.
30600887001: system.acc0_datapath: Receiving DMA response for node 2964, address 0x16b5480 with label inputs and size 32.
30600892001: system.acc0_datapath: Receiving DMA response for node 2964, address 0x16b54a0 with label inputs and size 32.
30600897001: system.acc0_datapath: Receiving DMA response for node 2964, address 0x16b54c0 with label inputs and size 32.
30600902001: system.acc0_datapath: Receiving DMA response for node 2964, address 0x16b54e0 with label inputs and size 32.
30600907001: system.acc0_datapath: Receiving DMA response for node 2964, address 0x16b5500 with label inputs and size 32.
30600912001: system.acc0_datapath: Receiving DMA response for node 2964, address 0x16b5520 with label inputs and size 32.
30600917001: system.acc0_datapath: Receiving DMA response for node 2964, address 0x16b5540 with label inputs and size 32.
30600922001: system.acc0_datapath: Receiving DMA response for node 2964, address 0x16b5560 with label inputs and size 32.
30600927001: system.acc0_datapath: Receiving DMA response for node 2964, address 0x16b5580 with label inputs and size 32.
30600932001: system.acc0_datapath: Receiving DMA response for node 2964, address 0x16b55a0 with label inputs and size 32.
30600937001: system.acc0_datapath: Receiving DMA response for node 2964, address 0x16b55c0 with label inputs and size 32.
30600942001: system.acc0_datapath: Receiving DMA response for node 2964, address 0x16b55e0 with label inputs and size 32.
30600947001: system.acc0_datapath: Receiving DMA response for node 2964, address 0x16b5600 with label inputs and size 32.
30600952001: system.acc0_datapath: Receiving DMA response for node 2964, address 0x16b5620 with label inputs and size 32.
30600952001: system.acc0_datapath: dmaCompleteCallback for node 2964.
30601338000: system.acc0_datapath: Scheduling DMA load operation with node id 5814 with delay 1536000
30602874000: system.acc0_datapath: Adding DMA node 5814 to DMA issue queue.
30602874000: system.acc0_datapath: issueDmaRequest: src_addr: 0x169edc0, dst_addr: 0x16b6640, size: 4096
30602874000: system.acc0_datapath: DMA Accesses: array label inputs
30602874000: system.acc0_datapath: Increment the dmaLoad accesses of partition inputs with size 4096. 
30602945501: system.acc0_datapath: Receiving DMA response for node 5814, address 0x16b6640 with label inputs and size 32.
30602950501: system.acc0_datapath: Receiving DMA response for node 5814, address 0x16b6660 with label inputs and size 32.
30602955501: system.acc0_datapath: Receiving DMA response for node 5814, address 0x16b6680 with label inputs and size 32.
30602960501: system.acc0_datapath: Receiving DMA response for node 5814, address 0x16b66a0 with label inputs and size 32.
30602965501: system.acc0_datapath: Receiving DMA response for node 5814, address 0x16b66c0 with label inputs and size 32.
30602970501: system.acc0_datapath: Receiving DMA response for node 5814, address 0x16b66e0 with label inputs and size 32.
30602975501: system.acc0_datapath: Receiving DMA response for node 5814, address 0x16b6700 with label inputs and size 32.
30602980501: system.acc0_datapath: Receiving DMA response for node 5814, address 0x16b6720 with label inputs and size 32.
30602985501: system.acc0_datapath: Receiving DMA response for node 5814, address 0x16b6740 with label inputs and size 32.
30602990501: system.acc0_datapath: Receiving DMA response for node 5814, address 0x16b6760 with label inputs and size 32.
30602995501: system.acc0_datapath: Receiving DMA response for node 5814, address 0x16b6780 with label inputs and size 32.
30603000501: system.acc0_datapath: Receiving DMA response for node 5814, address 0x16b67a0 with label inputs and size 32.
30603005501: system.acc0_datapath: Receiving DMA response for node 5814, address 0x16b67c0 with label inputs and size 32.
30603010501: system.acc0_datapath: Receiving DMA response for node 5814, address 0x16b67e0 with label inputs and size 32.
30603015501: system.acc0_datapath: Receiving DMA response for node 5814, address 0x16b6800 with label inputs and size 32.
30603020501: system.acc0_datapath: Receiving DMA response for node 5814, address 0x16b6820 with label inputs and size 32.
30603025501: system.acc0_datapath: Receiving DMA response for node 5814, address 0x16b6840 with label inputs and size 32.
30603030501: system.acc0_datapath: Receiving DMA response for node 5814, address 0x16b6860 with label inputs and size 32.
30603074001: system.acc0_datapath: Receiving DMA response for node 5814, address 0x16b6880 with label inputs and size 32.
30603079001: system.acc0_datapath: Receiving DMA response for node 5814, address 0x16b68a0 with label inputs and size 32.
30603084001: system.acc0_datapath: Receiving DMA response for node 5814, address 0x16b68c0 with label inputs and size 32.
30603089001: system.acc0_datapath: Receiving DMA response for node 5814, address 0x16b68e0 with label inputs and size 32.
30603094001: system.acc0_datapath: Receiving DMA response for node 5814, address 0x16b6900 with label inputs and size 32.
30603099001: system.acc0_datapath: Receiving DMA response for node 5814, address 0x16b6920 with label inputs and size 32.
30603104001: system.acc0_datapath: Receiving DMA response for node 5814, address 0x16b6940 with label inputs and size 32.
30603109001: system.acc0_datapath: Receiving DMA response for node 5814, address 0x16b6960 with label inputs and size 32.
30603114001: system.acc0_datapath: Receiving DMA response for node 5814, address 0x16b6980 with label inputs and size 32.
30603119001: system.acc0_datapath: Receiving DMA response for node 5814, address 0x16b69a0 with label inputs and size 32.
30603124001: system.acc0_datapath: Receiving DMA response for node 5814, address 0x16b69c0 with label inputs and size 32.
30603129001: system.acc0_datapath: Receiving DMA response for node 5814, address 0x16b69e0 with label inputs and size 32.
30603134001: system.acc0_datapath: Receiving DMA response for node 5814, address 0x16b6a00 with label inputs and size 32.
30603139001: system.acc0_datapath: Receiving DMA response for node 5814, address 0x16b6a20 with label inputs and size 32.
30603144001: system.acc0_datapath: Receiving DMA response for node 5814, address 0x16b6a40 with label inputs and size 32.
30603149001: system.acc0_datapath: Receiving DMA response for node 5814, address 0x16b6a60 with label inputs and size 32.
30603192501: system.acc0_datapath: Receiving DMA response for node 5814, address 0x16b6a80 with label inputs and size 32.
30603197501: system.acc0_datapath: Receiving DMA response for node 5814, address 0x16b6aa0 with label inputs and size 32.
30603202501: system.acc0_datapath: Receiving DMA response for node 5814, address 0x16b6ac0 with label inputs and size 32.
30603207501: system.acc0_datapath: Receiving DMA response for node 5814, address 0x16b6ae0 with label inputs and size 32.
30603212501: system.acc0_datapath: Receiving DMA response for node 5814, address 0x16b6b00 with label inputs and size 32.
30603217501: system.acc0_datapath: Receiving DMA response for node 5814, address 0x16b6b20 with label inputs and size 32.
30603222501: system.acc0_datapath: Receiving DMA response for node 5814, address 0x16b6b40 with label inputs and size 32.
30603227501: system.acc0_datapath: Receiving DMA response for node 5814, address 0x16b6b60 with label inputs and size 32.
30603232501: system.acc0_datapath: Receiving DMA response for node 5814, address 0x16b6b80 with label inputs and size 32.
30603237501: system.acc0_datapath: Receiving DMA response for node 5814, address 0x16b6ba0 with label inputs and size 32.
30603242501: system.acc0_datapath: Receiving DMA response for node 5814, address 0x16b6bc0 with label inputs and size 32.
30603247501: system.acc0_datapath: Receiving DMA response for node 5814, address 0x16b6be0 with label inputs and size 32.
30603252501: system.acc0_datapath: Receiving DMA response for node 5814, address 0x16b6c00 with label inputs and size 32.
30603257501: system.acc0_datapath: Receiving DMA response for node 5814, address 0x16b6c20 with label inputs and size 32.
30603262501: system.acc0_datapath: Receiving DMA response for node 5814, address 0x16b6c40 with label inputs and size 32.
30603267501: system.acc0_datapath: Receiving DMA response for node 5814, address 0x16b6c60 with label inputs and size 32.
30603311001: system.acc0_datapath: Receiving DMA response for node 5814, address 0x16b6c80 with label inputs and size 32.
30603316001: system.acc0_datapath: Receiving DMA response for node 5814, address 0x16b6ca0 with label inputs and size 32.
30603321001: system.acc0_datapath: Receiving DMA response for node 5814, address 0x16b6cc0 with label inputs and size 32.
30603326001: system.acc0_datapath: Receiving DMA response for node 5814, address 0x16b6ce0 with label inputs and size 32.
30603331001: system.acc0_datapath: Receiving DMA response for node 5814, address 0x16b6d00 with label inputs and size 32.
30603336001: system.acc0_datapath: Receiving DMA response for node 5814, address 0x16b6d20 with label inputs and size 32.
30603341001: system.acc0_datapath: Receiving DMA response for node 5814, address 0x16b6d40 with label inputs and size 32.
30603346001: system.acc0_datapath: Receiving DMA response for node 5814, address 0x16b6d60 with label inputs and size 32.
30603351001: system.acc0_datapath: Receiving DMA response for node 5814, address 0x16b6d80 with label inputs and size 32.
30603356001: system.acc0_datapath: Receiving DMA response for node 5814, address 0x16b6da0 with label inputs and size 32.
30603361001: system.acc0_datapath: Receiving DMA response for node 5814, address 0x16b6dc0 with label inputs and size 32.
30603366001: system.acc0_datapath: Receiving DMA response for node 5814, address 0x16b6de0 with label inputs and size 32.
30603371001: system.acc0_datapath: Receiving DMA response for node 5814, address 0x16b6e00 with label inputs and size 32.
30603376001: system.acc0_datapath: Receiving DMA response for node 5814, address 0x16b6e20 with label inputs and size 32.
30603381001: system.acc0_datapath: Receiving DMA response for node 5814, address 0x16b6e40 with label inputs and size 32.
30603386001: system.acc0_datapath: Receiving DMA response for node 5814, address 0x16b6e60 with label inputs and size 32.
30603429501: system.acc0_datapath: Receiving DMA response for node 5814, address 0x16b6e80 with label inputs and size 32.
30603434501: system.acc0_datapath: Receiving DMA response for node 5814, address 0x16b6ea0 with label inputs and size 32.
30603439501: system.acc0_datapath: Receiving DMA response for node 5814, address 0x16b6ec0 with label inputs and size 32.
30603444501: system.acc0_datapath: Receiving DMA response for node 5814, address 0x16b6ee0 with label inputs and size 32.
30603449501: system.acc0_datapath: Receiving DMA response for node 5814, address 0x16b6f00 with label inputs and size 32.
30603454501: system.acc0_datapath: Receiving DMA response for node 5814, address 0x16b6f20 with label inputs and size 32.
30603459501: system.acc0_datapath: Receiving DMA response for node 5814, address 0x16b6f40 with label inputs and size 32.
30603464501: system.acc0_datapath: Receiving DMA response for node 5814, address 0x16b6f60 with label inputs and size 32.
30603469501: system.acc0_datapath: Receiving DMA response for node 5814, address 0x16b6f80 with label inputs and size 32.
30603474501: system.acc0_datapath: Receiving DMA response for node 5814, address 0x16b6fa0 with label inputs and size 32.
30603479501: system.acc0_datapath: Receiving DMA response for node 5814, address 0x16b6fc0 with label inputs and size 32.
30603484501: system.acc0_datapath: Receiving DMA response for node 5814, address 0x16b6fe0 with label inputs and size 32.
30603489501: system.acc0_datapath: Receiving DMA response for node 5814, address 0x16b7000 with label inputs and size 32.
30603494501: system.acc0_datapath: Receiving DMA response for node 5814, address 0x16b7020 with label inputs and size 32.
30603499501: system.acc0_datapath: Receiving DMA response for node 5814, address 0x16b7040 with label inputs and size 32.
30603504501: system.acc0_datapath: Receiving DMA response for node 5814, address 0x16b7060 with label inputs and size 32.
30603548001: system.acc0_datapath: Receiving DMA response for node 5814, address 0x16b7080 with label inputs and size 32.
30603553001: system.acc0_datapath: Receiving DMA response for node 5814, address 0x16b70a0 with label inputs and size 32.
30603558001: system.acc0_datapath: Receiving DMA response for node 5814, address 0x16b70c0 with label inputs and size 32.
30603563001: system.acc0_datapath: Receiving DMA response for node 5814, address 0x16b70e0 with label inputs and size 32.
30603568001: system.acc0_datapath: Receiving DMA response for node 5814, address 0x16b7100 with label inputs and size 32.
30603573001: system.acc0_datapath: Receiving DMA response for node 5814, address 0x16b7120 with label inputs and size 32.
30603578001: system.acc0_datapath: Receiving DMA response for node 5814, address 0x16b7140 with label inputs and size 32.
30603583001: system.acc0_datapath: Receiving DMA response for node 5814, address 0x16b7160 with label inputs and size 32.
30603588001: system.acc0_datapath: Receiving DMA response for node 5814, address 0x16b7180 with label inputs and size 32.
30603593001: system.acc0_datapath: Receiving DMA response for node 5814, address 0x16b71a0 with label inputs and size 32.
30603598001: system.acc0_datapath: Receiving DMA response for node 5814, address 0x16b71c0 with label inputs and size 32.
30603603001: system.acc0_datapath: Receiving DMA response for node 5814, address 0x16b71e0 with label inputs and size 32.
30603608001: system.acc0_datapath: Receiving DMA response for node 5814, address 0x16b7200 with label inputs and size 32.
30603613001: system.acc0_datapath: Receiving DMA response for node 5814, address 0x16b7220 with label inputs and size 32.
30603618001: system.acc0_datapath: Receiving DMA response for node 5814, address 0x16b7240 with label inputs and size 32.
30603623001: system.acc0_datapath: Receiving DMA response for node 5814, address 0x16b7260 with label inputs and size 32.
30603666501: system.acc0_datapath: Receiving DMA response for node 5814, address 0x16b7280 with label inputs and size 32.
30603671501: system.acc0_datapath: Receiving DMA response for node 5814, address 0x16b72a0 with label inputs and size 32.
30603676501: system.acc0_datapath: Receiving DMA response for node 5814, address 0x16b72c0 with label inputs and size 32.
30603681501: system.acc0_datapath: Receiving DMA response for node 5814, address 0x16b72e0 with label inputs and size 32.
30603686501: system.acc0_datapath: Receiving DMA response for node 5814, address 0x16b7300 with label inputs and size 32.
30603691501: system.acc0_datapath: Receiving DMA response for node 5814, address 0x16b7320 with label inputs and size 32.
30603696501: system.acc0_datapath: Receiving DMA response for node 5814, address 0x16b7340 with label inputs and size 32.
30603701501: system.acc0_datapath: Receiving DMA response for node 5814, address 0x16b7360 with label inputs and size 32.
30603706501: system.acc0_datapath: Receiving DMA response for node 5814, address 0x16b7380 with label inputs and size 32.
30603711501: system.acc0_datapath: Receiving DMA response for node 5814, address 0x16b73a0 with label inputs and size 32.
30603716501: system.acc0_datapath: Receiving DMA response for node 5814, address 0x16b73c0 with label inputs and size 32.
30603721501: system.acc0_datapath: Receiving DMA response for node 5814, address 0x16b73e0 with label inputs and size 32.
30603726501: system.acc0_datapath: Receiving DMA response for node 5814, address 0x16b7400 with label inputs and size 32.
30603731501: system.acc0_datapath: Receiving DMA response for node 5814, address 0x16b7420 with label inputs and size 32.
30603736501: system.acc0_datapath: Receiving DMA response for node 5814, address 0x16b7440 with label inputs and size 32.
30603741501: system.acc0_datapath: Receiving DMA response for node 5814, address 0x16b7460 with label inputs and size 32.
30603785001: system.acc0_datapath: Receiving DMA response for node 5814, address 0x16b7480 with label inputs and size 32.
30603790001: system.acc0_datapath: Receiving DMA response for node 5814, address 0x16b74a0 with label inputs and size 32.
30603795001: system.acc0_datapath: Receiving DMA response for node 5814, address 0x16b74c0 with label inputs and size 32.
30603800001: system.acc0_datapath: Receiving DMA response for node 5814, address 0x16b74e0 with label inputs and size 32.
30603805001: system.acc0_datapath: Receiving DMA response for node 5814, address 0x16b7500 with label inputs and size 32.
30603810001: system.acc0_datapath: Receiving DMA response for node 5814, address 0x16b7520 with label inputs and size 32.
30603815001: system.acc0_datapath: Receiving DMA response for node 5814, address 0x16b7540 with label inputs and size 32.
30603820001: system.acc0_datapath: Receiving DMA response for node 5814, address 0x16b7560 with label inputs and size 32.
30603825001: system.acc0_datapath: Receiving DMA response for node 5814, address 0x16b7580 with label inputs and size 32.
30603830001: system.acc0_datapath: Receiving DMA response for node 5814, address 0x16b75a0 with label inputs and size 32.
30603835001: system.acc0_datapath: Receiving DMA response for node 5814, address 0x16b75c0 with label inputs and size 32.
30603840001: system.acc0_datapath: Receiving DMA response for node 5814, address 0x16b75e0 with label inputs and size 32.
30603845001: system.acc0_datapath: Receiving DMA response for node 5814, address 0x16b7600 with label inputs and size 32.
30603850001: system.acc0_datapath: Receiving DMA response for node 5814, address 0x16b7620 with label inputs and size 32.
30603850001: system.acc0_datapath: dmaCompleteCallback for node 5814.
30604236000: system.acc0_datapath: Scheduling DMA load operation with node id 8664 with delay 96000
30604332000: system.acc0_datapath: Adding DMA node 8664 to DMA issue queue.
30604332000: system.acc0_datapath: issueDmaRequest: src_addr: 0x169fdc0, dst_addr: 0x16b8640, size: 256
30604332000: system.acc0_datapath: DMA Accesses: array label inputs
30604332000: system.acc0_datapath: Increment the dmaLoad accesses of partition inputs with size 256. 
30604385501: system.acc0_datapath: Receiving DMA response for node 8664, address 0x16b8640 with label inputs and size 32.
30604390501: system.acc0_datapath: Receiving DMA response for node 8664, address 0x16b8660 with label inputs and size 32.
30604405501: system.acc0_datapath: Receiving DMA response for node 8664, address 0x16b8680 with label inputs and size 32.
30604410501: system.acc0_datapath: Receiving DMA response for node 8664, address 0x16b86a0 with label inputs and size 32.
30604415501: system.acc0_datapath: Receiving DMA response for node 8664, address 0x16b86c0 with label inputs and size 32.
30604420501: system.acc0_datapath: Receiving DMA response for node 8664, address 0x16b86e0 with label inputs and size 32.
30604425501: system.acc0_datapath: Receiving DMA response for node 8664, address 0x16b8700 with label inputs and size 32.
30604430501: system.acc0_datapath: Receiving DMA response for node 8664, address 0x16b8720 with label inputs and size 32.
30604430501: system.acc0_datapath: dmaCompleteCallback for node 8664.
30604463000: system.acc0_datapath: Scheduling DMA load operation with node id 8908 with delay 1536000
30605999000: system.acc0_datapath: Adding DMA node 8908 to DMA issue queue.
30605999000: system.acc0_datapath: issueDmaRequest: src_addr: 0x16936c0, dst_addr: 0x16efa80, size: 4096
30605999000: system.acc0_datapath: DMA Accesses: array label weights
30605999000: system.acc0_datapath: Increment the dmaLoad accesses of partition weights with size 4096. 
30606070501: system.acc0_datapath: Receiving DMA response for node 8908, address 0x16efa80 with label weights and size 32.
30606075501: system.acc0_datapath: Receiving DMA response for node 8908, address 0x16efaa0 with label weights and size 32.
30606080501: system.acc0_datapath: Receiving DMA response for node 8908, address 0x16efac0 with label weights and size 32.
30606085501: system.acc0_datapath: Receiving DMA response for node 8908, address 0x16efae0 with label weights and size 32.
30606090501: system.acc0_datapath: Receiving DMA response for node 8908, address 0x16efb00 with label weights and size 32.
30606095501: system.acc0_datapath: Receiving DMA response for node 8908, address 0x16efb20 with label weights and size 32.
30606100501: system.acc0_datapath: Receiving DMA response for node 8908, address 0x16efb40 with label weights and size 32.
30606105501: system.acc0_datapath: Receiving DMA response for node 8908, address 0x16efb60 with label weights and size 32.
30606110501: system.acc0_datapath: Receiving DMA response for node 8908, address 0x16efb80 with label weights and size 32.
30606115501: system.acc0_datapath: Receiving DMA response for node 8908, address 0x16efba0 with label weights and size 32.
30606120501: system.acc0_datapath: Receiving DMA response for node 8908, address 0x16efbc0 with label weights and size 32.
30606125501: system.acc0_datapath: Receiving DMA response for node 8908, address 0x16efbe0 with label weights and size 32.
30606130501: system.acc0_datapath: Receiving DMA response for node 8908, address 0x16efc00 with label weights and size 32.
30606135501: system.acc0_datapath: Receiving DMA response for node 8908, address 0x16efc20 with label weights and size 32.
30606140501: system.acc0_datapath: Receiving DMA response for node 8908, address 0x16efc40 with label weights and size 32.
30606145501: system.acc0_datapath: Receiving DMA response for node 8908, address 0x16efc60 with label weights and size 32.
30606189001: system.acc0_datapath: Receiving DMA response for node 8908, address 0x16efc80 with label weights and size 32.
30606194001: system.acc0_datapath: Receiving DMA response for node 8908, address 0x16efca0 with label weights and size 32.
30606199001: system.acc0_datapath: Receiving DMA response for node 8908, address 0x16efcc0 with label weights and size 32.
30606204001: system.acc0_datapath: Receiving DMA response for node 8908, address 0x16efce0 with label weights and size 32.
30606209001: system.acc0_datapath: Receiving DMA response for node 8908, address 0x16efd00 with label weights and size 32.
30606214001: system.acc0_datapath: Receiving DMA response for node 8908, address 0x16efd20 with label weights and size 32.
30606219001: system.acc0_datapath: Receiving DMA response for node 8908, address 0x16efd40 with label weights and size 32.
30606224001: system.acc0_datapath: Receiving DMA response for node 8908, address 0x16efd60 with label weights and size 32.
30606229001: system.acc0_datapath: Receiving DMA response for node 8908, address 0x16efd80 with label weights and size 32.
30606234001: system.acc0_datapath: Receiving DMA response for node 8908, address 0x16efda0 with label weights and size 32.
30606239001: system.acc0_datapath: Receiving DMA response for node 8908, address 0x16efdc0 with label weights and size 32.
30606244001: system.acc0_datapath: Receiving DMA response for node 8908, address 0x16efde0 with label weights and size 32.
30606249001: system.acc0_datapath: Receiving DMA response for node 8908, address 0x16efe00 with label weights and size 32.
30606254001: system.acc0_datapath: Receiving DMA response for node 8908, address 0x16efe20 with label weights and size 32.
30606259001: system.acc0_datapath: Receiving DMA response for node 8908, address 0x16efe40 with label weights and size 32.
30606264001: system.acc0_datapath: Receiving DMA response for node 8908, address 0x16efe60 with label weights and size 32.
30606307501: system.acc0_datapath: Receiving DMA response for node 8908, address 0x16efe80 with label weights and size 32.
30606312501: system.acc0_datapath: Receiving DMA response for node 8908, address 0x16efea0 with label weights and size 32.
30606317501: system.acc0_datapath: Receiving DMA response for node 8908, address 0x16efec0 with label weights and size 32.
30606322501: system.acc0_datapath: Receiving DMA response for node 8908, address 0x16efee0 with label weights and size 32.
30606327501: system.acc0_datapath: Receiving DMA response for node 8908, address 0x16eff00 with label weights and size 32.
30606332501: system.acc0_datapath: Receiving DMA response for node 8908, address 0x16eff20 with label weights and size 32.
30606337501: system.acc0_datapath: Receiving DMA response for node 8908, address 0x16eff40 with label weights and size 32.
30606342501: system.acc0_datapath: Receiving DMA response for node 8908, address 0x16eff60 with label weights and size 32.
30606347501: system.acc0_datapath: Receiving DMA response for node 8908, address 0x16eff80 with label weights and size 32.
30606352501: system.acc0_datapath: Receiving DMA response for node 8908, address 0x16effa0 with label weights and size 32.
30606357501: system.acc0_datapath: Receiving DMA response for node 8908, address 0x16effc0 with label weights and size 32.
30606362501: system.acc0_datapath: Receiving DMA response for node 8908, address 0x16effe0 with label weights and size 32.
30606367501: system.acc0_datapath: Receiving DMA response for node 8908, address 0x16f0000 with label weights and size 32.
30606372501: system.acc0_datapath: Receiving DMA response for node 8908, address 0x16f0020 with label weights and size 32.
30606377501: system.acc0_datapath: Receiving DMA response for node 8908, address 0x16f0040 with label weights and size 32.
30606382501: system.acc0_datapath: Receiving DMA response for node 8908, address 0x16f0060 with label weights and size 32.
30606426001: system.acc0_datapath: Receiving DMA response for node 8908, address 0x16f0080 with label weights and size 32.
30606431001: system.acc0_datapath: Receiving DMA response for node 8908, address 0x16f00a0 with label weights and size 32.
30606436001: system.acc0_datapath: Receiving DMA response for node 8908, address 0x16f00c0 with label weights and size 32.
30606441001: system.acc0_datapath: Receiving DMA response for node 8908, address 0x16f00e0 with label weights and size 32.
30606446001: system.acc0_datapath: Receiving DMA response for node 8908, address 0x16f0100 with label weights and size 32.
30606451001: system.acc0_datapath: Receiving DMA response for node 8908, address 0x16f0120 with label weights and size 32.
30606456001: system.acc0_datapath: Receiving DMA response for node 8908, address 0x16f0140 with label weights and size 32.
30606462501: system.acc0_datapath: Receiving DMA response for node 8908, address 0x16f0160 with label weights and size 32.
30606467501: system.acc0_datapath: Receiving DMA response for node 8908, address 0x16f0180 with label weights and size 32.
30606472501: system.acc0_datapath: Receiving DMA response for node 8908, address 0x16f01a0 with label weights and size 32.
30606477501: system.acc0_datapath: Receiving DMA response for node 8908, address 0x16f01c0 with label weights and size 32.
30606482501: system.acc0_datapath: Receiving DMA response for node 8908, address 0x16f01e0 with label weights and size 32.
30606487501: system.acc0_datapath: Receiving DMA response for node 8908, address 0x16f0200 with label weights and size 32.
30606492501: system.acc0_datapath: Receiving DMA response for node 8908, address 0x16f0220 with label weights and size 32.
30606716001: system.acc0_datapath: Receiving DMA response for node 8908, address 0x16f0240 with label weights and size 32.
30606721001: system.acc0_datapath: Receiving DMA response for node 8908, address 0x16f0260 with label weights and size 32.
30606726001: system.acc0_datapath: Receiving DMA response for node 8908, address 0x16f0280 with label weights and size 32.
30606731001: system.acc0_datapath: Receiving DMA response for node 8908, address 0x16f02a0 with label weights and size 32.
30606736001: system.acc0_datapath: Receiving DMA response for node 8908, address 0x16f02c0 with label weights and size 32.
30606741001: system.acc0_datapath: Receiving DMA response for node 8908, address 0x16f02e0 with label weights and size 32.
30606746001: system.acc0_datapath: Receiving DMA response for node 8908, address 0x16f0300 with label weights and size 32.
30606751001: system.acc0_datapath: Receiving DMA response for node 8908, address 0x16f0320 with label weights and size 32.
30606756001: system.acc0_datapath: Receiving DMA response for node 8908, address 0x16f0340 with label weights and size 32.
30606761001: system.acc0_datapath: Receiving DMA response for node 8908, address 0x16f0360 with label weights and size 32.
30606766001: system.acc0_datapath: Receiving DMA response for node 8908, address 0x16f0380 with label weights and size 32.
30606771001: system.acc0_datapath: Receiving DMA response for node 8908, address 0x16f03a0 with label weights and size 32.
30606776001: system.acc0_datapath: Receiving DMA response for node 8908, address 0x16f03c0 with label weights and size 32.
30606781001: system.acc0_datapath: Receiving DMA response for node 8908, address 0x16f03e0 with label weights and size 32.
30606786001: system.acc0_datapath: Receiving DMA response for node 8908, address 0x16f0400 with label weights and size 32.
30606791001: system.acc0_datapath: Receiving DMA response for node 8908, address 0x16f0420 with label weights and size 32.
30606834501: system.acc0_datapath: Receiving DMA response for node 8908, address 0x16f0440 with label weights and size 32.
30606839501: system.acc0_datapath: Receiving DMA response for node 8908, address 0x16f0460 with label weights and size 32.
30606844501: system.acc0_datapath: Receiving DMA response for node 8908, address 0x16f0480 with label weights and size 32.
30606849501: system.acc0_datapath: Receiving DMA response for node 8908, address 0x16f04a0 with label weights and size 32.
30606854501: system.acc0_datapath: Receiving DMA response for node 8908, address 0x16f04c0 with label weights and size 32.
30606859501: system.acc0_datapath: Receiving DMA response for node 8908, address 0x16f04e0 with label weights and size 32.
30606864501: system.acc0_datapath: Receiving DMA response for node 8908, address 0x16f0500 with label weights and size 32.
30606869501: system.acc0_datapath: Receiving DMA response for node 8908, address 0x16f0520 with label weights and size 32.
30606874501: system.acc0_datapath: Receiving DMA response for node 8908, address 0x16f0540 with label weights and size 32.
30606879501: system.acc0_datapath: Receiving DMA response for node 8908, address 0x16f0560 with label weights and size 32.
30606884501: system.acc0_datapath: Receiving DMA response for node 8908, address 0x16f0580 with label weights and size 32.
30606889501: system.acc0_datapath: Receiving DMA response for node 8908, address 0x16f05a0 with label weights and size 32.
30606894501: system.acc0_datapath: Receiving DMA response for node 8908, address 0x16f05c0 with label weights and size 32.
30606899501: system.acc0_datapath: Receiving DMA response for node 8908, address 0x16f05e0 with label weights and size 32.
30606904501: system.acc0_datapath: Receiving DMA response for node 8908, address 0x16f0600 with label weights and size 32.
30606909501: system.acc0_datapath: Receiving DMA response for node 8908, address 0x16f0620 with label weights and size 32.
30606953001: system.acc0_datapath: Receiving DMA response for node 8908, address 0x16f0640 with label weights and size 32.
30606958001: system.acc0_datapath: Receiving DMA response for node 8908, address 0x16f0660 with label weights and size 32.
30606963001: system.acc0_datapath: Receiving DMA response for node 8908, address 0x16f0680 with label weights and size 32.
30606968001: system.acc0_datapath: Receiving DMA response for node 8908, address 0x16f06a0 with label weights and size 32.
30606973001: system.acc0_datapath: Receiving DMA response for node 8908, address 0x16f06c0 with label weights and size 32.
30606978001: system.acc0_datapath: Receiving DMA response for node 8908, address 0x16f06e0 with label weights and size 32.
30606983001: system.acc0_datapath: Receiving DMA response for node 8908, address 0x16f0700 with label weights and size 32.
30606988001: system.acc0_datapath: Receiving DMA response for node 8908, address 0x16f0720 with label weights and size 32.
30606993001: system.acc0_datapath: Receiving DMA response for node 8908, address 0x16f0740 with label weights and size 32.
30606998001: system.acc0_datapath: Receiving DMA response for node 8908, address 0x16f0760 with label weights and size 32.
30607003001: system.acc0_datapath: Receiving DMA response for node 8908, address 0x16f0780 with label weights and size 32.
30607008001: system.acc0_datapath: Receiving DMA response for node 8908, address 0x16f07a0 with label weights and size 32.
30607013001: system.acc0_datapath: Receiving DMA response for node 8908, address 0x16f07c0 with label weights and size 32.
30607018001: system.acc0_datapath: Receiving DMA response for node 8908, address 0x16f07e0 with label weights and size 32.
30607023001: system.acc0_datapath: Receiving DMA response for node 8908, address 0x16f0800 with label weights and size 32.
30607028001: system.acc0_datapath: Receiving DMA response for node 8908, address 0x16f0820 with label weights and size 32.
30607071501: system.acc0_datapath: Receiving DMA response for node 8908, address 0x16f0840 with label weights and size 32.
30607076501: system.acc0_datapath: Receiving DMA response for node 8908, address 0x16f0860 with label weights and size 32.
30607081501: system.acc0_datapath: Receiving DMA response for node 8908, address 0x16f0880 with label weights and size 32.
30607086501: system.acc0_datapath: Receiving DMA response for node 8908, address 0x16f08a0 with label weights and size 32.
30607091501: system.acc0_datapath: Receiving DMA response for node 8908, address 0x16f08c0 with label weights and size 32.
30607096501: system.acc0_datapath: Receiving DMA response for node 8908, address 0x16f08e0 with label weights and size 32.
30607101501: system.acc0_datapath: Receiving DMA response for node 8908, address 0x16f0900 with label weights and size 32.
30607106501: system.acc0_datapath: Receiving DMA response for node 8908, address 0x16f0920 with label weights and size 32.
30607111501: system.acc0_datapath: Receiving DMA response for node 8908, address 0x16f0940 with label weights and size 32.
30607116501: system.acc0_datapath: Receiving DMA response for node 8908, address 0x16f0960 with label weights and size 32.
30607121501: system.acc0_datapath: Receiving DMA response for node 8908, address 0x16f0980 with label weights and size 32.
30607126501: system.acc0_datapath: Receiving DMA response for node 8908, address 0x16f09a0 with label weights and size 32.
30607131501: system.acc0_datapath: Receiving DMA response for node 8908, address 0x16f09c0 with label weights and size 32.
30607136501: system.acc0_datapath: Receiving DMA response for node 8908, address 0x16f09e0 with label weights and size 32.
30607141501: system.acc0_datapath: Receiving DMA response for node 8908, address 0x16f0a00 with label weights and size 32.
30607146501: system.acc0_datapath: Receiving DMA response for node 8908, address 0x16f0a20 with label weights and size 32.
30607190001: system.acc0_datapath: Receiving DMA response for node 8908, address 0x16f0a40 with label weights and size 32.
30607195001: system.acc0_datapath: Receiving DMA response for node 8908, address 0x16f0a60 with label weights and size 32.
30607195001: system.acc0_datapath: dmaCompleteCallback for node 8908.
30607581000: system.acc0_datapath: Scheduling DMA load operation with node id 11758 with delay 192000
30607773000: system.acc0_datapath: Adding DMA node 11758 to DMA issue queue.
30607773000: system.acc0_datapath: issueDmaRequest: src_addr: 0x16946c0, dst_addr: 0x16f1a80, size: 512
30607773000: system.acc0_datapath: DMA Accesses: array label weights
30607773000: system.acc0_datapath: Increment the dmaLoad accesses of partition weights with size 512. 
30607826501: system.acc0_datapath: Receiving DMA response for node 11758, address 0x16f1a80 with label weights and size 32.
30607831501: system.acc0_datapath: Receiving DMA response for node 11758, address 0x16f1aa0 with label weights and size 32.
30607836501: system.acc0_datapath: Receiving DMA response for node 11758, address 0x16f1ac0 with label weights and size 32.
30607841501: system.acc0_datapath: Receiving DMA response for node 11758, address 0x16f1ae0 with label weights and size 32.
30607846501: system.acc0_datapath: Receiving DMA response for node 11758, address 0x16f1b00 with label weights and size 32.
30607851501: system.acc0_datapath: Receiving DMA response for node 11758, address 0x16f1b20 with label weights and size 32.
30607856501: system.acc0_datapath: Receiving DMA response for node 11758, address 0x16f1b40 with label weights and size 32.
30607861501: system.acc0_datapath: Receiving DMA response for node 11758, address 0x16f1b60 with label weights and size 32.
30607866501: system.acc0_datapath: Receiving DMA response for node 11758, address 0x16f1b80 with label weights and size 32.
[...]
0667 0.00312614 0.00195885 0.000268221 0.00378227 0.00212669 0.00113487 0.0014782 3.20673e-05 0.00387573 0.0045166 0.00279617 0.00365829 0.001544 0.00156593 0.00191498 0.00390434 0.0013113 0.00343132 0.00211716 0.00333214 0.00166702 0.00397873 0.00413895 0.000766754 0.00462341 0.00346756 0.00496674 0.000906467 0.00409698 0.00442505 0.00132084 0.00101089 0.00152302 0.0024128 0.00107956 0.000815392 0.00121593 0.00316048 0.00138283 8.18968e-05 0.000437498 0.000204206 0.00353432 0.00214195 0.00388336 0.0039978 0.00194073 0.0034523 0.000994682 0.000240445 0.00371361 0.0032959 0.00392532 0.000865936 0.00145912 0.00355911 0.00184345 0.000608921 0.00321388 0.00194931 0.00302124 0.00119972 0.000166535 0.00105858 0.00144196 0.00226593 0.00375175 0.00359917 0.00201607 0.00290871 0.0037365 9.78112e-05 0.0022583 0.00449753 0.00465775 0.00197601 0.00176811 0.00160885 0.00193596 0.000144839 0.00196266 0.00353813 0.00299263 0.000576973 0.00392914 0.000729084 0.00218582 0.00295258 0.00424194 0.00217819 0.00237656 0.000939846 0.00466156 0.00319672 0.00307846 0.00411224 0.00186062 0.00250626 0.00347519 0.00392151 0.00213242 0.00164223 0.00151348 0.00204277 0.000840664 0.00479507 0.00213242 0.0010643 0.000888824 0.00395203 0.00208282 0.00050211 0.000140429 0.00324631 0.0017786 0.000329256 0.00314522 0.001441 0.00403595 0.00300217 0.00476074 0.00380707 0.0046196 0.000690937 0.00429535 0.000371218 0.000309944 0.00180054 0.00262642 0.00218964 0.0026722 0.00260735 0.00403976 0.00158787 0.00373459 0.00480652 0.00242043 0.00246239 0.000798702 0.00263596 0.000643253 0.00456238 0.00342941 0.00376511 0.00361633 0.00121784 0.00239182 0.00468826 0.00312805 0.00477982 0.0029583 0.00115204 0.000499725 0.00113964 0.000617027 0.00244904 0.0017271 0.00305748 0.00202942 0.00199127 0.00143242 0.00209618 0.00433731 0.00426483 0.00492477 0.00189114 0.00393295 0.00348091 0.00295448 0.00047183 0.00446701 0.00468063 0.00351715 0.0038147 0.000124574 0.00094986 0.000574112 0.00117397 0.00102425 0.000138521 0.00234985 0.0012064 0.00378418 0.00131798 0.00175285 0.00221252 0.00338745 0.00272942 0.00337982 0.00328064 0.0018692 0.00426483 0.00395584 0.0018034 0.00436401 0.000906944 0.000852108 0.00235367 0.00224304 0.0015049 0.00193501 0.00398636 0.00450516 0.00263214 0.00445175 0.00213814 0.00170517 0.00352669 0.00204468 0.00471115 8.55923e-05 0.00366402 0.000662804 0.00398254 0.00384903 0.00397491 0.00351524 0.001297 0.0042572 0.000534058 2.89679e-05 0.00445938 0.00367737 0.00170326 0.001544 0.00141716 0.00494766 3.98755e-05 0.000929356 0.00377846 0.00335693 0.00346756 0.00367355 0.00258255 0.00107861 0.000389814 0.00250435 2.3365e-05 0.000813484 0.00069046 0.00306129 0.00205612 0.00225449 0.00355339 0.00363159 0.0046463 0.00396347 0.00367355 0.00219154 0.00024128 0.00216484 0.00260544 0.00246048 0.00209427 0.000481606 0.00429153 0.000372887 0.00205612 0.0019207 0.00289917 0.00249863 0.00265121 0.000562668 0.000912666 0.0033474 0.00243378 0.00258255 0.00107861 0.00195312 0.00182629 0.00169849 0.00331116 0.000646591 0.00361633 0.00406647 0.000842094 0.0019455 0.00369453 0.00297165 0.000574589 0.000511646 0.00486374 0.0048027 0.00470352 0.00303078 0.00141811 0.000121951 0.000760555 0.00404358 0.00165367 0.00397491 0.00122452 0.00194931 0.00144291 0.00422668 0.00287056 0.00117779 0.00381851 0.00456238 0.000430107 0.0019989 0.0021553 0.00190735 0.00220299 0.00136757 0.00418854 0.00210953 0.000858307 0.00209427 2.31862e-05 0.00314713 0.00402069 0.00329018 0.00355721 0.00148678 0.00484848 0.000506878 0.00157166 0.00246048 0.000932217 0.00130081 0.00128746 0.000526905 0.00329971 0.00274658 0.000838757 0.00405884 0.000326872 0.00198174 0.00094223 0.00487137 0.00151443 0.000794888 0.00446701 0.00330544 0.000881672 0.000763893 0.00253296 0.00367928 0.00465012 0.00017786 0.00279808 0.00485229 0.00495148 0.000108957 0.00257874 0.00300407 0.00173855 0.0042038 0.00307655 0.000732899 0.00352859 0.0042038 0.00358391 0.00287056 0.00335121 0.00377464 0.00141621 0.00265884 0.000500679 0.00465775 0.0032959 0.000497341 0.0027523 0.000164509 0.00256348 0.00382042 0.00224876 0.000435352 0.00120735 0.000151277 3.66569e-05 0.00162315 0.000236392 0.0031395 0.00332642 0.00484848 0.00157261 0.00492096 0.00301361 0.00377655 0.0045166 8.36253e-05 0.00227547 0.00163364 0.00408936 0.0039978 0.00245857 0.000163436 0.00348091 0.00160313 0.00279427 0.00362015 0.00312233 0.00419617 0.0011549 0.0025692 0.00320625 0.00449753 0.00386429 0.0018177 0.00454712 0.00466537 0.00203514 0.00436783 0.00177002 0.00438309 0.00485611 0.00203514 0.00226021 0.00181389 0.0011816 0.00175285 0.00290489 0.00333786 0.000375271 0.00475311 0.000892162 0.00299644 0.00156498 0.000973701 0.00363922 0.00334549 0.00259972 0.00316811 0.00187206 0.00174332 0.00148773 0.00285339 0.000278234 0.00296402 0.0023613 0.00296593 0.00351524 0.00357246 0.0030117 0.00362587 0.00439453 0.00498581 0.00134945 0.0019083 0.00174427 0.00280571 0.00237274 0.000541687 0.000492096 0.00351334 0.00205421 0.00320816 0.000285864 0.00173664 0.00229836 1.37091e-05 0.000601768 0.00497818 0.00444794 0.00203896 0.00374413 0.00309753 0.00453186 0.00403595 0.00374222 0.00122261 0.00103474 0.00245857 0.00349617 0.00195503 0.0038166 0.00421906 0.000765324 0.00468445 0.00419235 0.000834942 7.26581e-05 0.00418091 0.00104618 0.00208282 0.00480652 0.00214005 0.00452423 0.000619888 0.000139832 0.00284576 0.00223732 0.00482178 0.00265121 0.00173283 0.0039444 0.002491 0.0017786 0.00447464 0.000543594 0.000923634 0.00214005 0.00392914 0.00145054 0.00285912 0.00233269 0.000145674 0.0025959 0.00312805 0.00108814 0.0036087 0.00238609 0.0013485 0.000531673 0.00296783 0.00192356 0.00239944 0.00221443 0.00271416 0.000744343 0.00143623 0.00307274 0.00108051 0.00172997 0.00290108 0.00214386 0.00462723 0.00172901 0.000895977 0.00424576 0.00209045 0.000272512 0.00350761 0.00440216 0.00193405 0.00354004 0.00338173 1.2517e-06 0.00491333 0.000989914 0.00278664 0.00425339 0.00302696 0.000229836 0.000194669 0.00405121 0.00335884 0.000516415 0.000251532 0.00367737 0.00144577 0.00253487 0.000370264 0.000308037 0.000544071 0.00100994 0.0033741 0.00133896 0.00392151 0.000951767 0.000476122 0.0045166 0.000979424 0.000216484 0.00226021 0.00470352 0.00406647 0.00416183 0.00131226 0.00331306 0.00408936 0.00152779 0.00315857 0.0023632 0.00224686 0.000320196 0.000830173 0.00426865 0.00043726 0.00485992 0.00159931 0.00133896 0.00494003 0.00231743 0.00467682 0.00221443 0.00116539 3.18885e-05 0.00465012 0.00498199 0.00152016 0.00271034 0.00277519 0.000759602 0.00400162 0.00332069 0.00434875 0.00293732 0.00407791 0.00496674 0.00192833 0.000131488 0.00255966 0.00465012 0.00382614 0.00258827 0.00386238 0.00323677 0.00368118 0.000449657 0.00272179 0.00190926 0.00214195 0.00492477 0.00429535 0.00281525 0.00160599 0.00220299 0.00190926 0.00374603 0.000484228 0.00195122 0.000207901 0.000293732 0.00453186 0.00141621 0.00174141 0.0034008 0.00410843 0.00452042 0.00345421 0.000592232 0.000667095 0.00273323 0.00413513 0.00196266 0.00398636 0.00128555 0.00305557 0.00476837 0.00198936 0.00248718 0.00344467 0.00212479 0.00145531 0.000523567 0.000724316 2.53916e-05 0.000282764 0.00400162 0.00123978 0.00166416 0.0012207 0.00212669 0.00291252 0.000833988 0.0020256 0.000807285 0.00149155 0.00494003 0.00491333 0.000859737 0.00099659 0.000974178 0.00261116 0.0049324 0.00469971 0.00237274 0.00261688 0.00437164 0.00277519 0.00137138 0.000210643 0.0022316 0.00351334 0.00136662 0.00372887 0.00321007 0.00408936 0.004673 0.00147057 0.00349808 0.00481796 0.000177145 0.00346947 0.00343513 0.00273514 0.00262451 0.00152302 0.00314903 0.00305939 0.000635624 0.00204468 0.00319862 0.00025773 0.0031414 0.00162601 0.00178909 0.00434113 0.00462723 0.0043869 0.00243568 0.00313568 0.0036087 0.00433731 0.000935555 0.000763416 0.00357056 0.00448227 0.00226212 0.000909328 0.00386047 0.00309944 0.0026474 0.000424862 0.00320053 0.00458908 0.00254059 0.00111198 0.00405502 0.00422668 0.00264359 0.00160885 0.00109959 0.00247192 0.00457001 0.000797749 0.00383759 0.000514984 0.00305176 0.00233078 0.00144386 0.00460815 0.00479126 0.000545025 0.00140381 0.000352621 0.00463867 0.000726223 0.00452042 0.00313759 0.000391722 0.00363731 0.00011152 0.000772953 0.00458145 0.00235367 0.00410843 0.00307083 0.00461578 0.00385284 0.00328064 0.00214958 0.00325394 0.00382233 0.00149345 0.00314903 0.00350571 8.15392e-05 0.00488281 0.00281334 0.00450897 9.79304e-05 0.00301361 0.000741482 0.000145674 0.00250053 0.000639439 7.95722e-05 0.00198555 0.00206566 0.00275993 0.00162029 0.00310898 0.00277328 0.00452805 0.00288963 0.00141811 0.00132275 0.00129032 0.00196457 0.00225258 0.00465775 0.00498199 0.00124359 0.000161171 0.00216103 0.00271988 0.0027771 0.000156522 0.0038147 0.00207901 0.00319481 0.00342178 0.00247192 0.00255585 0.00243378 0.00382805 0.0024395 0.00194645 0.0023632 0.00112057 0.000593662 8.08835e-05 0.00436783 0.000239134 0.00106239 0.0024395 0.000979424 0.000992775 0.000412226 0.000300884 0.00121498 0.00119686 0.00221825 0.000785828 0.00430298 0.00431061 0.00357246 0.00434875 0.00294876 0.00479507 0.00205231 0.00281334 0.00333214 5.51939e-05 0.00288963 0.00246239 0.000785828 0.000381231 0.00158691 0.00366211 0.00225067 0.0011158 0.00400925 0.00382423 0.00289917 0.0024128 0.00371742 0.00333977 0.00359917 0.00488281 0.00377464 0.00256348 0.00193119 0.00289917 0.00452042 0.00449371 0.00168324 0.00344086 0.00128841 0.00332069 0.00284576 0.00237274 0.00118065 0.00489807 0.00498962 0.00440598 0.00395584 0.00495529 0.00477219 0.00105095 0.00245476 0.00240135 0.00224495 0.00285149 0.00180626 0.00116062 0.00462341 0.00110245 0.00103855 0.00192833 0.00319099 0.00284767 0.00333023 0.00203705 0.00485611 0.00333595 0.00248337 0.00420761 0.000720024 3.80874e-05 0.0012722 0.00118351 0.000961781 0.00257683 0.00266075 0.00456238 0.000910282 0.00421143 0.000809669 0.00460434 2.77758e-05 0.00114727 0.00293732 0.00170612 0.00349617 0.000193954 0.0026722 0.00421143 0.00453949 0.00115871 0.000909805 0.0033226 0.00178623 0.0010643 0.00294685 0.000601768 0.000718594 0.00142097 0.00406647 0.000173092 0.00264549 0.00272942 0.00370407 0.00266266 0.00100994 0.00368309 0.00387383 0.0018568 0.00141811 0.00157356 0.00485611 0.004673 0.00249672 0.0032959 0.00339317 0.00497818 0.00122929 0.00488663 0.000339508 0.00214958 0.00263977 0.00176239 0.00346756 0.00328445 0.00437546 0.0020237 0.000380039 0.000804901 0.000839233 0.000552177 0.00331497 5.90682e-05 0.00251198 0.00445938 0.00416946 0.00416946 0.00463104 0.00432587 0.00115013 0.000640392 0.00248146 0.00344276 0.00261307 0.00285912 0.00124741 0.00496292 0.00452423 0.004776 0.00434113 0.00470734 0.000958443 0.000491142 0.0047493 0.00307846 0.00490189 0.000305653 0.00255775 0.00442505 0.000170469 9.4831e-05 0.00178146 0.00281525 0.003479 0.00437164 0.00200653 0.000689507 0.000336647 0.00114727 0.000762939 0.00479889 0.000694752 0.00181866 0.0044136 0.00302505 0.00106907 0.00262833 0.00365448 0.00153732 0.00330353 0.00192928 0.00429916 0.00471115 0.00429535 0.000559807 0.00382805 0.00143814 0.00368309 0.00484467 0.00068903 0.00165367 0.00126457 0.00491333 0.00308609 0.00159645 0.00223732 0.000341654 0.00344658 0.00303268 0.00223351 0.000252247 0.000587463 0.00186539 0.00020206 0.00339508 0.00283623 0.00225067 0.00113583 0.00400162 0.000583649 0.000855923 2.99811e-05 0.00224686 0.00234985 0.00447083 0.00262642 0.00367928 0.00054884 0.000325203 0.00367165 0.00212288 0.00279236 0.00344086 0.00380516 0.00108719 0.00441742 0.00129986 0.00215721 0.00203514 0.00473404 0.00206184 9.93013e-05 0.000448465 0.0044899 0.000813007 0.00274658 0.00402832 0.00167179 0.0025444 0.00437546 0.00483322 0.00404358 0.00109768 0.00473022 0.00100994 0.0049324 0.00189877 0.000490665 0.000874519 0.00271416 6.82473e-05 0.000878811 0.000948906 0.00418091 0.00441742 0.0012722 2.96235e-05 0.00120831 0.0015049 0.00157356 0.0039978 0.0038662 0.000803471 0.00261116 0.00068903 0.00478363 0.00477219 0.000581741 0.00458145 5.23329e-05 0.00482178 0.00170803 8.04663e-06 2.22325e-05 0.00280571 0.00137997 0.00423431 0.00128651 0.00238991 0.000552654 0.00329018 0.00299454 0.00183201 0.00152779 0.00177479 0.00400925 0.000236511 0.0024147 0.00117302 0.000473738 0.000567436 0.0032177 0.00242043 0.00128174 0.0047493 0.00218582 0.00462341 0.00256538 0.00496292 0.00235176 0.00211143 0.00219917 0.00173187 0.000555992 0.00115299 0.000113904 0.000255585 0.000371933 0.0029583 0.00472641 0.000146508 0.00250626 0.000773907 0.00297737 0.00134277 0.000227094 0.00313568 0.000833511 8.80957e-05 0.000509262 0.00323677 0.00418091 0.00130081 0.000357389 0.000582218 0.00348282 0.0038929 0.00398636 0.000565529 0.00277328 0.00180626 0.00143814 0.00135708 0.00148392 0.00105762 0.00014019 0.00322533 0.00361633 0.000820637 0.00270081 0.00466919 0.00173473 0.00385666 0.00231934 0.00150204 0.00375557 0.00110626 0.00479126 0.00393295 0.00493622 0.00471115 0.000535965 0.00447083 0.00225449 0.00374794 0.0034008 0.0021534 0.00174332 0.00243378 0.000953197 0.00347519 0.000714302 0.0042038 0.0045929 0.000141382 0.00248146 0.00445175 0.00426102 0.00485229 0.00448608 0.00192928 0.00253868 0.00132751 0.00252724 0.000234008 0.00486755 0.0047493 0.00459671 0.00137615 0.000932693 0.00318718 0.00374413 0.00306129 4.09484e-05 0.00292778 0.000296354 0.00394821 0.00491333 0.000765324 0.00426865 0.000422001 0.00447845 0.00412369 0.00282288 0.00148582 0.00168324 0.00316811 0.00466919 0.00484085 0.00411224 0.00194359 0.004776 0.00172043 0.0022831 0.00473404 0.00251961 0.00183487 0.000663757 0.00436401 0.000386477 0.000346661 0.00219536 1.81198e-05 0.00409317 0.00191689 0.000328302 0.00295639 0.00400925 0.00144005 0.00258446 0.00140762 0.0040741 0.0048027 0.000435591 0.00197601 0.0030365 0.00116348 0.00274658 0.00418854 0.00316429 0.00314713 0.0025425 0.00212479 0.00333214 0.0036335 0.00470352 0.000962257 0.00374985 0.000738144 0.000931263 0.00440979 0.00274849 0.000151515 0.00230026 0.00461578 0.00351906 0.0020752 0.00270462 0.000593662 0.00333214 0.00458908 0.00390625 0.00281143 0.00452042 0.000469208 0.00056076 0.00218582 0.00468063 0.000822544 0.00109482 0.00430679 0.00392914 0.00338554 0.00142288 0.000444889 0.00264359 0.0037632 0.00443649 0.00164986 0.00217628 0.00489807 0.000312328 0.00338936 2.0504e-05 0.000905991 0.00194645 0.0013504 0.000489712 0.00331497 0.00330734 0.000161529 0.000380754 0.00411224 0.00380135 0.00278854 0.00261497 0.00108624 0.00233269 0.00468445 0.00206947 0.00135899 0.000301123 0.00178814 0.0020504 0.00467682 0.00107574 0.00135231 0.00488663 0.000731945 0.00354767 0.00188065 0.00396729 0.00406265 0.0019083 0.00145245 0.000445604 0.00103855 0.00406647 0.0035305 0.00299644 0.00145149 0.00206184 0.00421906 0.00375557 0.00221634 0.00424957 0.00209045 0.00397873 0.00353813 0.00394821 0.000162363 0.000821114 0.00289154 0.00309753 0.00413513 0.00112629 0.000200748 0.000754356 0.00030899 0.00261688 0.0008111 0.00135231 0.00362206 0.00319862 0.00367737 0.00354004 0.0032711 0.00330353 0.00255966 0.00132656 0.000607014 0.000856876 0.0024662 0.00237846 0.0038166 0.00115299 0.00469208 0.00263405 0.00256157 0.00497818 0.00160789 0.00195503 0.00253296 0.00307274 0.00318909 0.00169563 0.00122738 0.00263405 0.00492096 0.0011797 0.00471878 0.000793457 0.00291824 0.00312805 0.00113678 0.00285912 0.00394058 7.7486e-05 0.0022068 0.00349617 0.00388336 0.000787735 0.00223541 0.00119591 0.0010004 0.0019989 0.00267982 0.00472641 0.00121975 0.00486755 0.00336647 0.00275803 0.00345039 0.000568867 0.00337219 0.000141144 0.000898361 0.00374794 0.00178242 0.00445938 0.00113964 0.00349426 0.00166988 0.00370216 0.00395203 0.00200844 0.00253296 0.0042305 0.000173092 0.00377274 0.00117207 0.00314713 0.00244713 0.00105286 0.00139713 0.000372171 0.00384331 0.00260735 0.00393295 0.00155449 0.00318527 0.00333214 0.000444889 0.00218964 0.00180912 0.00427246 0.00483322 0.00268555 0.000223994 0.00397491 0.00478363 0.000345945 0.000937462 0.00254822 0.00149727 0.00219917 0.00415039 0.0032692 0.00301552 0.00363922 0.00249481 0.00244141 0.00402832 0.00139713 0.00187206 0.00124645 0.00097847 0.00377464 0.00126743 0.00332069 0.00158691 0.00235176 0.00201035 0.00263214 0.00363541 0.000305891 0.00267601 0.00330734 0.00281334 0.00392914 0.00134754 0.00202751 0.00153542 0.00147915 0.00219345 0.00492859 0.00383377 0.00060606 0.000802517 8.11219e-05 0.00250244 0.00388145 0.00055933 0.00319099 0.00374794 0.000329018 0.00326157 0.00284195 0.00255013 0.00276566 0.00432205 0.00128746 0.0017662 0.000777721 0.00351906 0.000158668 0.00103378 0.00142384 0.00161743 0.00247574 0.00270462 0.00172997 0.00259399 0.00185108 0.00057888 0.00336456 0.0039978 0.000160933 0.00389671 0.00262833 0.00140667 0.00149345 0.00226593 0.00356483 0.00183105 0.00185776 0.00430679 0.0045166 0.000694275 0.00460434 0.00168419 0.00473404 0.00266457 0.000493526 0.00321198 0.00327301 0.00185585 0.00232887 0.00435638 0.000317574 0.00463104 0.00210381 0.00176239 0.000790119 0.00427628 0.00407791 0.00320816 0.00351524 0.00335884 0.00132751 0.00374985 0.00299263 0.0003438 0.00478363 0.000808716 0.00127411 0.00182724 0.004879 0.00451279 0.00319099 0.00313759 0.000902176 0.00228119 0.000307798 0.00428772 0.0042305 0.0044632 0.00253677 0.00193977 0.00036788 0.000701904 0.0049324 0.00143623 0.00399017 0.00307465 0.00194645 0.0041275 0.00395584 0.000917912 0.00257683 0.000229597 0.00179291 0.00414276 0.00445557 0.000876427 0.0021286 0.00426865 0.00365067 0.000794411 0.00379562 0.00203323 0.00237083 0.000963688 0.000725746 0.00419235 0.000348568 0.00258064 0.00161934 0.00245476 0.00340652 0.00292778 0.000285864 0.000488758 0.00247574 0.00289345 0.00263405 0.00258064 0.00196457 0.00404358 0.00129509 0.00293922 0.00370216 0.00120735 0.00362396 0.00273323 0.0034256 0.00245667 0.00406647 0.00308037 0.00328255 0.00342178 0.000668526 0.000908852 0.00165081 0.00197983 0.00497437 0.000281811 0.00194931 0.00343132 0.00268555 0.00174809 0.00395966 0.00486374 0.00286293 0.00297546 0.0011797 0.000354767 0.00270081 0.00276756 0.00344276 0.00234032 0.000477314 0.00219917 0.00185966 0.00341797 0.00221252 0.00345993 0.0018177 0.0036087 0.00260735 0.00298119 0.00445938 0.00319672 0.00474548 0.00300789 0.000347376 0.0011673 0.00249672 0.00326347 0.00224686 0.00284004 0.000277519 0.0042305 0.00493622 0.00252724 0.00169277 0.00152874 0.00231743 0.00395203 0.00466537 0.0032959 0.000123739 0.00325203 0.00355911 0.00473785 0.00378227 0.00187588 0.00490189 0.0030098 0.00121307 0.00478745 7.88569e-05 0.00402832 0.00177097 0.0030632 0.0015564 0.00328445 0.00119591 0.000381231 0.00296211 0.000146627 0.0043335 0.00175095 0.00373077 0.00405502 0.000958443 0.000659466 0.00460434 0.000808716 0.00286102 0.00106621 0.00435257 0.00393295 0.00325394 0.00393295 0.00186157 0.00439835 0.00482941 0.00344658 0.00321198 0.000876904 0.00311852 0.00203323 0.00100231 0.00415039 0.00214386 0.000142336 0.000239372 0.00396347 0.000915051 0.00308228 0.000775814 0.00162697 0.00458908 0.00368118 0.000697136 0.00491714 0.00344658 0.00369644 0.00219917 0.00311089 0.000130892 0.000347853 0.00412369 0.000621319 0.00171566 0.00463867 0.00399399 0.00338364 0.00208282 0.00176144 2.75373e-05 0.0022049 0.000225902 0.0014801 0.00027585 0.00419617 0.000136852 0.0024128 0.00396347 0.00379181 0.00255966 0.00493622 0.00229073 0.00461197 0.00346565 0.000617504 0.00212669 0.00170326 0.00384712 0.00193787 0.000628471 0.00372124 0.000175118 0.00143337 0.00366974 0.00380707 0.00447464 0.000214815 0.00240707 0.00473404 0.00487137 0.00398254 0.00356102 0.00230026 0.0012598 0.00326729 0.00208664 0.00248337 0.00443649 0.00327301 0.00219154 0.002985 0.00120163 0.00327492 0.000483513 0.00354385 0.00498962 0.000955105 0.000832081 0.00168324 0.00326729 0.00489807 0.000474215 0.000231981 0.00187492 0.00289917 0.00275993 0.00252151 0.00168324 0.00166225 0.00277901 0.00491333 0.000477314 0.0001477 0.00144291 0.000419855 0.00177956 0.00407028 0.00485229 0.00279045 0.00446701 0.00185585 0.00258255 0.00325394 7.98106e-05 0.000444651 0.00392914 0.000911236 0.000858307 0.002491 0.00126648 0.000892639 0.0034Exiting @ tick 70030180000 because user interrupt received
