gem5 Simulator System.  http://gem5.org
gem5 is copyrighted software; use the --copyright option for details.

gem5 compiled Dec 15 2022 15:56:59
gem5 started Jan  7 2023 19:38:13
gem5 executing on 4f2b486d0a29, pid 1128
command line: /workspace/gem5-aladdin/build/X86/gem5.opt --debug-flags=Aladdin,HybridDatapath --outdir=outputs /workspace/gem5-aladdin/configs/aladdin/aladdin_se.py --num-cpus=1 --mem-size=4GB --mem-type=LPDDR4_3200_2x16 --cpu-clock=2.5GHz --cpu-type=DerivO3CPU --ruby --access-backing-store --l2_size=2097152 --l2_assoc=16 --cacheline_size=32 --accel_cfg_file=gem5.cfg --fast-forward=10000000000 -c /workspace/smaug/build/bin/smaug -o 'my_model_topo.pbtxt my_model_params.pb --gem5 --debug-level=2 --num-accels=2'

Global frequency set at 1000000000000 ticks per second
-------------------------------
      Setting ScratchPad       
-------------------------------
      0: system: Registered accelerator 3
-------------------------------
      Setting ScratchPad       
-------------------------------
      0: system: Registered accelerator 4
      0: system.acc0_datapath: Registering stats.
      0: system.acc1_datapath: Registering stats.
Switch at instruction count:10000000000
dumpGraph = true
Model topology file: my_model_topo.pbtxt
Model parameters file: my_model_params.pb
Number of accelerators: 2
SMAUG requires the accelerator IDs (configured in the gem5 configuration file) to be monotonically incremented by 1.
======================================================
      Loading the network model...
======================================================
Adding data (Data).
Adding data_1 (Data).
Adding conv (Convolution3d).
Adding max_pool (MaxPooling).
Adding reorder (Reorder).
Adding data_2 (Data).
Adding mat_mul (InnerProduct).
======================================================
      Summary of the network.
======================================================
____________________________________________________________________________________________
Layer (type)                             Output shape                 Parameters  
____________________________________________________________________________________________
data_2 (Data)                            (10, 6272)                       0       
____________________________________________________________________________________________
data_1 (Data)                            (32, 3, 3, 1)                    0       
____________________________________________________________________________________________
data (Data)                              (1, 28, 28, 1)                   0       
____________________________________________________________________________________________
conv (Convolution3d)                     (1, 28, 28, 32)                 288      
____________________________________________________________________________________________
max_pool (MaxPooling)                    (1, 14, 14, 32)                  0       
____________________________________________________________________________________________
reorder (Reorder)                        (1, 6272)                        0       
____________________________________________________________________________________________
mat_mul (InnerProduct)                   (1, 10)                        62720     
____________________________________________________________________________________________
======================================================
      Tiling operators of the network...
======================================================
Tiling conv (Convolution3d).
  Tiling dimensions chosen:
    input: None, weight: None, output: DimNC
  Number of possible tiling configs: 2
    inputs: (1, 28, 28, 1), weights: (32, 3, 3, 1), outputs: (1, 28, 28, 8)
    inputs: (1, 28, 28, 1), weights: (32, 3, 3, 1), outputs: (1, 28, 28, 16)
  Tiled Tensor data/input0:
    original tensor shape: (1, 28, 28, 1)
    tile shape: (1, 28, 28, 1), number of tiles: 1
  Tiled Tensor data_1/input0:
    original tensor shape: (32, 3, 3, 1)
    tile shape: (32, 3, 3, 1), number of tiles: 1
  Tiled Tensor conv/output0:
    original tensor shape: (1, 28, 28, 32)
    tile shape: (1, 28, 28, 16), number of tiles: 2
Tiling data (Data).
Tiling data_1 (Data).
Tiling data_2 (Data).
Tiling mat_mul (InnerProduct).
  Tiling dimensions chosen:
    input: None, weight: DimNC, output: None
  Number of possible tiling configs: 64
    inputs: (1, 6272), weights: (8, 32), outputs: (1, 10)
    inputs: (1, 6272), weights: (8, 64), outputs: (1, 10)
    inputs: (1, 6272), weights: (8, 96), outputs: (1, 10)
    inputs: (1, 6272), weights: (8, 128), outputs: (1, 10)
    inputs: (1, 6272), weights: (8, 160), outputs: (1, 10)
    inputs: (1, 6272), weights: (8, 192), outputs: (1, 10)
    inputs: (1, 6272), weights: (8, 224), outputs: (1, 10)
    inputs: (1, 6272), weights: (8, 256), outputs: (1, 10)
    inputs: (1, 6272), weights: (8, 288), outputs: (1, 10)
    inputs: (1, 6272), weights: (8, 320), outputs: (1, 10)
    inputs: (1, 6272), weights: (8, 352), outputs: (1, 10)
    inputs: (1, 6272), weights: (8, 384), outputs: (1, 10)
    inputs: (1, 6272), weights: (8, 416), outputs: (1, 10)
    inputs: (1, 6272), weights: (8, 448), outputs: (1, 10)
    inputs: (1, 6272), weights: (8, 480), outputs: (1, 10)
    inputs: (1, 6272), weights: (8, 512), outputs: (1, 10)
    inputs: (1, 6272), weights: (8, 544), outputs: (1, 10)
    inputs: (1, 6272), weights: (8, 576), outputs: (1, 10)
    inputs: (1, 6272), weights: (8, 608), outputs: (1, 10)
    inputs: (1, 6272), weights: (8, 640), outputs: (1, 10)
    inputs: (1, 6272), weights: (8, 672), outputs: (1, 10)
    inputs: (1, 6272), weights: (8, 704), outputs: (1, 10)
    inputs: (1, 6272), weights: (8, 736), outputs: (1, 10)
    inputs: (1, 6272), weights: (8, 768), outputs: (1, 10)
    inputs: (1, 6272), weights: (8, 800), outputs: (1, 10)
    inputs: (1, 6272), weights: (8, 832), outputs: (1, 10)
    inputs: (1, 6272), weights: (8, 864), outputs: (1, 10)
    inputs: (1, 6272), weights: (8, 896), outputs: (1, 10)
    inputs: (1, 6272), weights: (8, 928), outputs: (1, 10)
    inputs: (1, 6272), weights: (8, 960), outputs: (1, 10)
    inputs: (1, 6272), weights: (8, 992), outputs: (1, 10)
    inputs: (1, 6272), weights: (8, 1024), outputs: (1, 10)
    inputs: (1, 6272), weights: (8, 1056), outputs: (1, 10)
    inputs: (1, 6272), weights: (8, 1088), outputs: (1, 10)
    inputs: (1, 6272), weights: (8, 1120), outputs: (1, 10)
    inputs: (1, 6272), weights: (8, 1152), outputs: (1, 10)
    inputs: (1, 6272), weights: (8, 1184), outputs: (1, 10)
    inputs: (1, 6272), weights: (8, 1216), outputs: (1, 10)
    inputs: (1, 6272), weights: (8, 1248), outputs: (1, 10)
    inputs: (1, 6272), weights: (8, 1280), outputs: (1, 10)
    inputs: (1, 6272), weights: (8, 1312), outputs: (1, 10)
    inputs: (1, 6272), weights: (8, 1344), outputs: (1, 10)
    inputs: (1, 6272), weights: (8, 1376), outputs: (1, 10)
    inputs: (1, 6272), weights: (8, 1408), outputs: (1, 10)
    inputs: (1, 6272), weights: (8, 1440), outputs: (1, 10)
    inputs: (1, 6272), weights: (8, 1472), outputs: (1, 10)
    inputs: (1, 6272), weights: (8, 1504), outputs: (1, 10)
    inputs: (1, 6272), weights: (8, 1536), outputs: (1, 10)
    inputs: (1, 6272), weights: (8, 1568), outputs: (1, 10)
    inputs: (1, 6272), weights: (8, 1600), outputs: (1, 10)
    inputs: (1, 6272), weights: (8, 1632), outputs: (1, 10)
    inputs: (1, 6272), weights: (8, 1664), outputs: (1, 10)
    inputs: (1, 6272), weights: (8, 1696), outputs: (1, 10)
    inputs: (1, 6272), weights: (8, 1728), outputs: (1, 10)
    inputs: (1, 6272), weights: (8, 1760), outputs: (1, 10)
    inputs: (1, 6272), weights: (8, 1792), outputs: (1, 10)
    inputs: (1, 6272), weights: (8, 1824), outputs: (1, 10)
    inputs: (1, 6272), weights: (8, 1856), outputs: (1, 10)
    inputs: (1, 6272), weights: (8, 1888), outputs: (1, 10)
    inputs: (1, 6272), weights: (8, 1920), outputs: (1, 10)
    inputs: (1, 6272), weights: (8, 1952), outputs: (1, 10)
    inputs: (1, 6272), weights: (8, 1984), outputs: (1, 10)
    inputs: (1, 6272), weights: (8, 2016), outputs: (1, 10)
    inputs: (1, 6272), weights: (8, 2048), outputs: (1, 10)
  Tiled Tensor reorder/output0:
    original tensor shape: (1, 6272)
    tile shape: (1, 6272), number of tiles: 1
  Tiled Tensor data_2/input0:
    original tensor shape: (10, 6272)
    tile shape: (8, 2048), number of tiles: 8
  Tiled Tensor mat_mul/output0:
    original tensor shape: (1, 10)
    tile shape: (1, 10), number of tiles: 1
Tiling max_pool (MaxPooling).
  Tiling dimensions chosen: 
    input: DimNC, output: None
  Number of possible tiling configs: 2
    inputs: (1, 28, 28, 8), outputs: (1, 14, 14, 32)
    inputs: (1, 28, 28, 16), outputs: (1, 14, 14, 32)
  Tiled Tensor conv/output0:
    original tensor shape: (1, 28, 28, 32)
    tile shape: (1, 28, 28, 16), number of tiles: 2
  Tiled Tensor max_pool/output0:
    original tensor shape: (1, 14, 14, 32)
    tile shape: (1, 14, 14, 32), number of tiles: 1
Tiling reorder (Reorder).
Switched CPUS @ tick 31676666000
switching cpus
**** REAL SIMULATION ****
======================================================
      Scheduling operators of the network...
======================================================
Scheduling data (Data).
data/input0, shape = (1, 28, 28, 1)
( 0 0 0 0 )
[ 0.000957489 
  0.00311089 
  0.00218773 
  0.00392532 
  0.00390053 
  0.0013628 
  0.00138187 
  0.00400925 
  0.00479126 
  0.00437927 
  0.00178909 
  0.00250435 
  0.00341797 
  0.00356293 
  0.00185108 
  0.00280571 
  0.00251579 
  6.88434e-05 
  0.00386429 
  0.0044136 
  0.00182438 
  0.00307655 
  0.00037694 
  0.00184441 
  0.00466537 
  0.00325775 
  0.00198555 
  0.0039444  ]
( 0 1 0 0 )
[ 0.00158405 
  0.00284004 
  0.00434494 
  0.0021801 
  0.00400925 
  0.00071907 
  0.00352097 
  0.00352287 
  0.00109386 
  0.00462341 
  0.00221062 
  0.00454712 
  0.000298977 
  0.000921249 
  0.00023675 
  0.0033741 
  0.00297356 
  0.00266647 
  0.000216603 
  0.00280762 
  0.00164795 
  0.00251389 
  0.00055933 
  0.0030365 
  0.00283051 
  3.37958e-05 
  0.003088 
  0.00456238  ]
( 0 2 0 0 )
[ 0.00395203 
  0.00495911 
  0.00479507 
  0.00395966 
  0.0014267 
  0.00312424 
  0.00238991 
  0.00097847 
  0.00191116 
  0.000269413 
  0.0022583 
  0.00490952 
  0.000619888 
  0.000597 
  0.00369263 
  0.00293732 
  0.00235748 
  0.000535488 
  0.00114632 
  0.00450134 
  0.00208282 
  0.00267982 
  3.1054e-05 
  0.00150299 
  0.00218391 
  0.00306129 
  0.0045929 
  0.00312805  ]
( 0 3 0 0 )
[ 0.0035305 
  0.000749111 
  0.00373077 
  0.00415421 
  0.00316811 
  0.00219154 
  0.000762939 
  0.00284195 
  0.00264168 
  0.00475693 
  0.00240135 
  0.00251198 
  0.00268364 
  0.00409698 
  0.000285625 
  0.0033474 
  0.00383568 
  0.00354004 
  0.00398254 
  0.00278854 
  0.00482941 
  0.00073576 
  0.000148177 
  0.00296974 
  0.000570297 
  0.00475311 
  0.00162888 
  0.000967979  ]
( 0 4 0 0 )
[ 0.00228882 
  0.00460052 
  0.00439453 
  0.00126266 
  0.00174046 
  0.000913143 
  0.00450897 
  0.00353241 
  0.0036335 
  0.00450134 
  0.00389671 
  0.00299644 
  0.00145531 
  0.000756741 
  0.00167561 
  0.00328827 
  0.000366688 
  0.000275135 
  0.00161552 
  0.00295258 
  0.00426865 
  0.00143528 
  0.000865459 
  0.000669956 
  0.00497437 
  0.000897408 
  0.00158787 
  0.00284195  ]
( 0 5 0 0 )
[ 4.673e-05 
  0.00450134 
  0.00488663 
  0.00278473 
  0.000423908 
  0.00166512 
  0.00364304 
  0.000712395 
  0.00276184 
  0.00136566 
  0.00487137 
  0.00333977 
  0.00127792 
  0.000541687 
  0.00388145 
  0.00391388 
  0.00380707 
  0.00457382 
  0.00329399 
  0.00284195 
  0.00100899 
  0.00349236 
  0.00476074 
  0.00444794 
  0.00496674 
  0.00409317 
  0.0027256 
  0.00225639  ]
( 0 6 0 0 )
[ 0.00445175 
  0.00486755 
  0.00296783 
  0.0018301 
  0.00161552 
  0.00435638 
  0.00107861 
  0.00367546 
  0.00182819 
  0.00400925 
  0.00391388 
  0.00350761 
  0.0031147 
  0.00246811 
  0.0042038 
  0.00356102 
  0.00222015 
  0.00015521 
  0.0018158 
  0.00365448 
  0.00237846 
  0.00172234 
  0.00320435 
  0.000630856 
  0.000857353 
  0.003685 
  0.000635147 
  0.00184822  ]
( 0 7 0 0 )
[ 0.00302124 
  0.000515461 
  0.00401306 
  0.00472641 
  0.00489426 
  0.00440598 
  0.00313759 
  0.00465393 
  0.00362396 
  0.00358391 
  0.000205398 
  0.00219727 
  0.00141048 
  0.00167465 
  0.000417709 
  0.00380516 
  0.00254631 
  0.00330544 
  0.00315094 
  0.0018549 
  0.00223351 
  0.0020752 
  0.00240135 
  0.00491714 
  0.00186729 
  6.20484e-05 
  0.00460815 
  0.00436783  ]
( 0 8 0 0 )
[ 0.00175858 
  0.00315094 
  0.00178909 
  0.0010643 
  0.00111675 
  0.00209808 
  0.000364542 
  0.00325394 
  0.00377846 
  0.00466156 
  0.0018816 
  0.00148487 
  0.00185966 
  0.00413895 
  0.00450516 
  0.00213623 
  1.09673e-05 
  0.000209808 
  0.000709057 
  0.00299072 
  0.00053215 
  0.00148582 
  0.000292063 
  0.00310707 
  0.000113428 
  0.00427628 
  0.0015316 
  0.00379372  ]
( 0 9 0 0 )
[ 0.00281715 
  0.000190854 
  0.00282669 
  0.00329399 
  0.000916481 
  0.00398636 
  0.00306129 
  0.00277901 
  0.00314713 
  0.00343132 
  0.00120163 
  0.00394058 
  0.00428391 
  0.00363922 
  0.00346184 
  0.0023613 
  0.00428391 
  0.00332451 
  0.00166702 
  0.00259018 
  0.00197411 
  0.00015521 
  0.00288391 
  0.00424957 
  0.00475693 
  0.00341415 
  0.000380754 
  0.0020504  ]
( 0 10 0 0 )
[ 0.000209451 
  0.000870705 
  0.00282669 
  0.000864506 
  0.00283241 
  0.0025692 
  0.00434494 
  0.00360107 
  0.0045166 
  0.00138855 
  0.00128365 
  0.00349808 
  0.00450897 
  0.00491714 
  0.00320435 
  0.00164986 
  0.00303268 
  0.00411224 
  0.0031395 
  0.000589848 
  0.00142956 
  0.0049324 
  0.00215912 
  0.00287056 
  0.00263596 
  0.000988007 
  0.000828743 
  0.00250435  ]
( 0 11 0 0 )
[ 0.00495148 
  0.00197029 
  0.00357056 
  0.000879288 
  0.000353575 
  0.000788212 
  0.000807762 
  0.00141811 
  0.00268364 
  0.0038662 
  0.00440216 
  0.00318718 
  0.00426483 
  0.00299072 
  0.00346947 
  0.00268555 
  0.00444794 
  0.000261307 
  0.00391769 
  0.000725746 
  0.000293493 
  0.000294924 
  0.000259876 
  0.00258064 
  0.0020256 
  0.00499725 
  0.000542641 
  0.00163651  ]
( 0 12 0 0 )
[ 0.00498962 
  0.00200462 
  0.00441742 
  0.00284576 
  0.00476456 
  0.00442505 
  0.00389671 
  0.000159025 
  0.00481415 
  0.00259781 
  0.00103855 
  0.00437546 
  0.00112057 
  0.000693321 
  0.00362587 
  0.00486755 
  0.00267792 
  0.00222397 
  0.000110567 
  0.00303078 
  0.00482559 
  0.00483704 
  0.00465012 
  0.000923634 
  0.0031147 
  0.00206566 
  0.00181484 
  0.000182986  ]
( 0 13 0 0 )
[ 0.00434113 
  0.00336456 
  0.00043726 
  0.00443649 
  0.00391388 
  0.00158691 
  0.00409317 
  0.00253868 
  0.000105977 
  0.00216675 
  0.0022316 
  0.001194 
  0.00415039 
  0.00372314 
  0.00293159 
  0.00246429 
  0.00243759 
  0.00133324 
  0.00302505 
  0.00376701 
  0.00135326 
  0.00261116 
  0.000491619 
  0.00356865 
  0.00442123 
  0.00283432 
  0.00497055 
  0.000893593  ]
( 0 14 0 0 )
[ 6.09756e-05 
  0.002285 
  0.00465775 
  0.0042305 
  0.00236702 
  0.00451279 
  0.0011301 
  0.00152111 
  0.00357437 
  0.00362015 
  9.34005e-05 
  0.0014286 
  0.00290298 
  0.00465393 
  0.00169468 
  0.000600338 
  0.00258064 
  0.00349617 
  0.00149345 
  0.00430679 
  0.00452805 
  0.00384331 
  0.00130653 
  0.00469208 
  0.00469208 
  0.00372505 
  0.00455475 
  0.00118637  ]
( 0 15 0 0 )
[ 0.00247574 
  0.00405121 
  0.00477219 
  0.00318718 
  0.00455475 
  0.00345993 
  0.000214696 
  0.00416946 
  0.00185013 
  0.00468445 
  0.0024147 
  0.000626564 
  0.00482178 
  8.51154e-05 
  0.00338364 
  0.000702381 
  0.000776768 
  0.00324821 
  0.00490952 
  0.00347328 
  0.00380898 
  0.00212669 
  0.000694275 
  0.00108051 
  0.00382423 
  0.000272989 
  0.00245094 
  0.000903606  ]
( 0 16 0 0 )
[ 0.00315475 
  0.00275612 
  0.00283623 
  0.00409317 
  0.00469589 
  0.000964642 
  0.00356483 
  0.00349045 
  0.00129128 
  0.00457764 
  0.00266266 
  0.00279045 
  0.00161362 
  0.00169277 
  0.0016613 
  0.00489426 
  0.00101566 
  0.00333595 
  0.00287437 
  0.000259876 
  0.00271416 
  0.00103951 
  0.000455379 
  0.00434875 
  0.000136852 
  0.00484467 
  0.00163746 
  0.00205231  ]
( 0 17 0 0 )
[ 0.000677586 
  0.000635147 
  0.00206947 
  0.003088 
  0.000661373 
  0.00487137 
  0.00090313 
  0.00380135 
  0.00241089 
  0.00383949 
  0.00151443 
  7.58767e-05 
  0.00231743 
  0.00351715 
  0.00033021 
  0.00334549 
  0.0017271 
  0.0029583 
  0.00114536 
  0.00133801 
  0.00466537 
  0.00413132 
  0.000727177 
  0.00323486 
  0.00442123 
  0.00370598 
  0.00257874 
  0.000676155  ]
( 0 18 0 0 )
[ 0.000199437 
  0.00417328 
  0.000585079 
  0.00261497 
  0.00436401 
  0.000193596 
  0.00346184 
  0.00238228 
  0.000846386 
  0.000315905 
  0.000161171 
  0.00121212 
  0.000563622 
  0.0020256 
  0.000210404 
  0.00463104 
  0.00467682 
  0.00405121 
  0.000941753 
  0.00293732 
  0.0045166 
  0.00483704 
  0.000337601 
  0.00158787 
  0.00348473 
  0.00320053 
  0.00316238 
  0.00414276  ]
( 0 19 0 0 )
[ 0.00356483 
  0.00167751 
  0.00083828 
  0.00382423 
  0.00179672 
  0.000440121 
  0.00364876 
  0.00440598 
  0.000206351 
  0.000874519 
  0.00209999 
  0.00170326 
  0.000223875 
  0.000564575 
  0.00218964 
  0.000355482 
  0.00408173 
  0.00432968 
  0.000655651 
  0.000966072 
  0.00218773 
  0.00485611 
  0.00387001 
  0.000658989 
  0.00463486 
  0.00413895 
  0.00196457 
  0.000702858  ]
( 0 20 0 0 )
[ 0.000260592 
  0.000463724 
  0.00443649 
  0.000840664 
  0.00181484 
  0.0032711 
  0.00302505 
  0.00197411 
  0.00187302 
  0.000315428 
  0.00214386 
  0.00359917 
  0.00383949 
  0.000971794 
  0.00431442 
  0.000143647 
  0.00450897 
  0.00118256 
  0.000642776 
  0.00158978 
  0.00424194 
  0.00416183 
  0.00172806 
  0.00119972 
  0.00267982 
  0.00135708 
  0.000172138 
  0.00313568  ]
( 0 21 0 0 )
[ 0.00260162 
  0.000209808 
  0.00378799 
  0.00494003 
  0.00400543 
  0.00171947 
  0.00167656 
  0.00175762 
  0.00221443 
  0.00289726 
  0.003088 
  0.000885487 
  0.00432587 
  0.00355148 
  0.000853062 
  0.00427628 
  9.93013e-05 
  0.00320816 
  0.000811577 
  0.00128746 
  0.0017128 
  3.06964e-05 
  0.00219345 
  0.00398636 
  0.00337791 
  0.0027256 
  0.00282097 
  6.99162e-05  ]
( 0 22 0 0 )
[ 0.00304413 
  0.00494385 
  0.00112057 
  0.00293541 
  0.00417709 
  0.00396347 
  0.00164604 
  0.00178623 
  0.00479889 
  0.00111866 
  0.00105762 
  0.000769615 
  0.00247955 
  0.00130653 
  0.00277901 
  0.000364542 
  0.00189304 
  0.00230598 
  0.0038929 
  0.00360298 
  0.00115585 
  0.000122666 
  0.00128651 
  0.0020504 
  4.20213e-05 
  0.00235748 
  0.00426102 
  0.00461578  ]
( 0 23 0 0 )
[ 0.00115681 
  0.00495529 
  2.99811e-05 
  0.00167656 
  0.0039444 
  0.000492573 
  0.00221252 
  0.00190353 
  0.00416183 
  0.00355911 
  0.00177479 
  0.000123143 
  0.00346756 
  0.00210571 
  0.00429153 
  0.00287628 
  0.00469971 
  0.00440216 
  0.00229073 
  8.65459e-05 
  0.000343323 
  0.00160313 
  0.00296211 
  0.00304985 
  0.00256157 
  0.000723839 
  0.00438309 
  0.00369072  ]
( 0 24 0 0 )
[ 0.00186634 
  0.00414276 
  0.000451088 
  0.000319958 
  0.00252914 
  0.00466537 
  0.00074482 
  0.00284767 
  0.000298738 
  0.000846386 
  0.00034523 
  0.00453186 
  0.00223732 
  0.00053215 
  0.00332642 
  0.00251198 
  0.00204659 
  0.00363922 
  0.000860214 
  0.00192261 
  0.00133514 
  0.00154114 
  0.00088644 
  0.0024128 
  0.00314903 
  0.000297785 
  0.000984192 
  0.00139618  ]
( 0 25 0 0 )
[ 0.00354004 
  0.00163746 
  0.00212669 
  0.00352478 
  0.000795364 
  0.00219727 
  0.00314713 
  0.00462341 
  0.00178528 
  0.00409698 
  0.00320053 
  0.00357437 
  0.00369263 
  0.00485611 
  0.00123024 
  0.000212908 
  0.00123882 
  0.000225067 
  0.00352669 
  0.00417328 
  0.00466919 
  0.00235367 
  0.00256157 
  0.00131512 
  0.00049448 
  0.00399399 
  0.000713825 
  0.00402832  ]
( 0 26 0 0 )
[ 0.00439835 
  0.00250053 
  0.00457001 
  0.00206184 
  0.00100231 
  0.0032177 
  0.0019989 
  0.00307083 
  0.00218582 
  0.00296593 
  0.00475693 
  0.00276566 
  0.00452042 
  0.000692368 
  7.7486e-06 
  0.00306511 
  0.00270844 
  0.00390244 
  0.00410843 
  0.00476837 
  0.00304985 
  0.00145054 
  0.00413513 
  0.00187969 
  0.00304604 
  0.00309944 
  0.0022068 
  0.000993729  ]
( 0 27 0 0 )
[ 0.00222015 
  0.00462341 
  0.00335693 
  0.000407696 
  0.00286293 
  0.000603199 
  0.00500107 
  0.00498581 
  0.00347328 
  0.0018692 
  0.00200844 
  0.00462723 
  0.00122452 
  0.00332069 
  0.00240517 
  0.000174761 
  0.000554562 
  0.00447845 
  0.00445938 
  0.00457764 
  0.00153732 
  0.0014925 
  0.0032959 
  0.00297546 
  0.00492096 
  0.00307846 
  0.00077343 
  0.00415802  ]

Scheduling data_1 (Data).
data_1/input0, shape = (32, 3, 3, 1)
( 0 0 0 0 )
[ 0.000957489 
  0.00311089 
  0.00218773  ]
( 0 1 0 0 )
[ 0.00392532 
  0.00390053 
  0.0013628  ]
( 0 2 0 0 )
[ 0.00138187 
  0.00400925 
  0.00479126  ]
( 1 0 0 0 )
[ 0.00437927 
  0.00178909 
  0.00250435  ]
( 1 1 0 0 )
[ 0.00341797 
  0.00356293 
  0.00185108  ]
( 1 2 0 0 )
[ 0.00280571 
  0.00251579 
  6.88434e-05  ]
( 2 0 0 0 )
[ 0.00386429 
  0.0044136 
  0.00182438  ]
( 2 1 0 0 )
[ 0.00307655 
  0.00037694 
  0.00184441  ]
( 2 2 0 0 )
[ 0.00466537 
  0.00325775 
  0.00198555  ]
( 3 0 0 0 )
[ 0.0039444 
  0.00158405 
  0.00284004  ]
( 3 1 0 0 )
[ 0.00434494 
  0.0021801 
  0.00400925  ]
( 3 2 0 0 )
[ 0.00071907 
  0.00352097 
  0.00352287  ]
( 4 0 0 0 )
[ 0.00109386 
  0.00462341 
  0.00221062  ]
( 4 1 0 0 )
[ 0.00454712 
  0.000298977 
  0.000921249  ]
( 4 2 0 0 )
[ 0.00023675 
  0.0033741 
  0.00297356  ]
( 5 0 0 0 )
[ 0.00266647 
  0.000216603 
  0.00280762  ]
( 5 1 0 0 )
[ 0.00164795 
  0.00251389 
  0.00055933  ]
( 5 2 0 0 )
[ 0.0030365 
  0.00283051 
  3.37958e-05  ]
( 6 0 0 0 )
[ 0.003088 
  0.00456238 
  0.00395203  ]
( 6 1 0 0 )
[ 0.00495911 
  0.00479507 
  0.00395966  ]
( 6 2 0 0 )
[ 0.0014267 
  0.00312424 
  0.00238991  ]
( 7 0 0 0 )
[ 0.00097847 
  0.00191116 
  0.000269413  ]
( 7 1 0 0 )
[ 0.0022583 
  0.00490952 
  0.000619888  ]
( 7 2 0 0 )
[ 0.000597 
  0.00369263 
  0.00293732  ]
( 8 0 0 0 )
[ 0.00235748 
  0.000535488 
  0.00114632  ]
( 8 1 0 0 )
[ 0.00450134 
  0.00208282 
  0.00267982  ]
( 8 2 0 0 )
[ 3.1054e-05 
  0.00150299 
  0.00218391  ]
( 9 0 0 0 )
[ 0.00306129 
  0.0045929 
  0.00312805  ]
( 9 1 0 0 )
[ 0.0035305 
  0.000749111 
  0.00373077  ]
( 9 2 0 0 )
[ 0.00415421 
  0.00316811 
  0.00219154  ]
( 10 0 0 0 )
[ 0.000762939 
  0.00284195 
  0.00264168  ]
( 10 1 0 0 )
[ 0.00475693 
  0.00240135 
  0.00251198  ]
( 10 2 0 0 )
[ 0.00268364 
  0.00409698 
  0.000285625  ]
( 11 0 0 0 )
[ 0.0033474 
  0.00383568 
  0.00354004  ]
( 11 1 0 0 )
[ 0.00398254 
  0.00278854 
  0.00482941  ]
( 11 2 0 0 )
[ 0.00073576 
  0.000148177 
  0.00296974  ]
( 12 0 0 0 )
[ 0.000570297 
  0.00475311 
  0.00162888  ]
( 12 1 0 0 )
[ 0.000967979 
  0.00228882 
  0.00460052  ]
( 12 2 0 0 )
[ 0.00439453 
  0.00126266 
  0.00174046  ]
( 13 0 0 0 )
[ 0.000913143 
  0.00450897 
  0.00353241  ]
( 13 1 0 0 )
[ 0.0036335 
  0.00450134 
  0.00389671  ]
( 13 2 0 0 )
[ 0.00299644 
  0.00145531 
  0.000756741  ]
( 14 0 0 0 )
[ 0.00167561 
  0.00328827 
  0.000366688  ]
( 14 1 0 0 )
[ 0.000275135 
  0.00161552 
  0.00295258  ]
( 14 2 0 0 )
[ 0.00426865 
  0.00143528 
  0.000865459  ]
( 15 0 0 0 )
[ 0.000669956 
  0.00497437 
  0.000897408  ]
( 15 1 0 0 )
[ 0.00158787 
  0.00284195 
  4.673e-05  ]
( 15 2 0 0 )
[ 0.00450134 
  0.00488663 
  0.00278473  ]
( 16 0 0 0 )
[ 0.000423908 
  0.00166512 
  0.00364304  ]
( 16 1 0 0 )
[ 0.000712395 
  0.00276184 
  0.00136566  ]
( 16 2 0 0 )
[ 0.00487137 
  0.00333977 
  0.00127792  ]
( 17 0 0 0 )
[ 0.000541687 
  0.00388145 
  0.00391388  ]
( 17 1 0 0 )
[ 0.00380707 
  0.00457382 
  0.00329399  ]
( 17 2 0 0 )
[ 0.00284195 
  0.00100899 
  0.00349236  ]
( 18 0 0 0 )
[ 0.00476074 
  0.00444794 
  0.00496674  ]
( 18 1 0 0 )
[ 0.00409317 
  0.0027256 
  0.00225639  ]
( 18 2 0 0 )
[ 0.00445175 
  0.00486755 
  0.00296783  ]
( 19 0 0 0 )
[ 0.0018301 
  0.00161552 
  0.00435638  ]
( 19 1 0 0 )
[ 0.00107861 
  0.00367546 
  0.00182819  ]
( 19 2 0 0 )
[ 0.00400925 
  0.00391388 
  0.00350761  ]
( 20 0 0 0 )
[ 0.0031147 
  0.00246811 
  0.0042038  ]
( 20 1 0 0 )
[ 0.00356102 
  0.00222015 
  0.00015521  ]
( 20 2 0 0 )
[ 0.0018158 
  0.00365448 
  0.00237846  ]
( 21 0 0 0 )
[ 0.00172234 
  0.00320435 
  0.000630856  ]
( 21 1 0 0 )
[ 0.000857353 
  0.003685 
  0.000635147  ]
( 21 2 0 0 )
[ 0.00184822 
  0.00302124 
  0.000515461  ]
( 22 0 0 0 )
[ 0.00401306 
  0.00472641 
  0.00489426  ]
( 22 1 0 0 )
[ 0.00440598 
  0.00313759 
  0.00465393  ]
( 22 2 0 0 )
[ 0.00362396 
  0.00358391 
  0.000205398  ]
( 23 0 0 0 )
[ 0.00219727 
  0.00141048 
  0.00167465  ]
( 23 1 0 0 )
[ 0.000417709 
  0.00380516 
  0.00254631  ]
( 23 2 0 0 )
[ 0.00330544 
  0.00315094 
  0.0018549  ]
( 24 0 0 0 )
[ 0.00223351 
  0.0020752 
  0.00240135  ]
( 24 1 0 0 )
[ 0.00491714 
  0.00186729 
  6.20484e-05  ]
( 24 2 0 0 )
[ 0.00460815 
  0.00436783 
  0.00175858  ]
( 25 0 0 0 )
[ 0.00315094 
  0.00178909 
  0.0010643  ]
( 25 1 0 0 )
[ 0.00111675 
  0.00209808 
  0.000364542  ]
( 25 2 0 0 )
[ 0.00325394 
  0.00377846 
  0.00466156  ]
( 26 0 0 0 )
[ 0.0018816 
  0.00148487 
  0.00185966  ]
( 26 1 0 0 )
[ 0.00413895 
  0.00450516 
  0.00213623  ]
( 26 2 0 0 )
[ 1.09673e-05 
  0.000209808 
  0.000709057  ]
( 27 0 0 0 )
[ 0.00299072 
  0.00053215 
  0.00148582  ]
( 27 1 0 0 )
[ 0.000292063 
  0.00310707 
  0.000113428  ]
( 27 2 0 0 )
[ 0.00427628 
  0.0015316 
  0.00379372  ]
( 28 0 0 0 )
[ 0.00281715 
  0.000190854 
  0.00282669  ]
( 28 1 0 0 )
[ 0.00329399 
  0.000916481 
  0.00398636  ]
( 28 2 0 0 )
[ 0.00306129 
  0.00277901 
  0.00314713  ]
( 29 0 0 0 )
[ 0.00343132 
  0.00120163 
  0.00394058  ]
( 29 1 0 0 )
[ 0.00428391 
  0.00363922 
  0.00346184  ]
( 29 2 0 0 )
[ 0.0023613 
  0.00428391 
  0.00332451  ]
( 30 0 0 0 )
[ 0.00166702 
  0.00259018 
  0.00197411  ]
( 30 1 0 0 )
[ 0.00015521 
  0.00288391 
  0.00424957  ]
( 30 2 0 0 )
[ 0.00475693 
  0.00341415 
  0.000380754  ]
( 31 0 0 0 )
[ 0.0020504 
  0.000209451 
  0.000870705  ]
( 31 1 0 0 )
[ 0.00282669 
  0.000864506 
  0.00283241  ]
( 31 2 0 0 )
[ 0.0025692 
  0.00434494 
  0.00360107  ]

Scheduling data_2 (Data).
data_2/input0, shape = (10, 6272)
( 0 0 )
[ 0.000957489 0.00311089 0.00218773 0.00392532 0.00390053 0.0013628 0.00138187 0.00400925 0.00479126 0.00437927 0.00178909 0.00250435 0.00341797 0.00356293 0.00185108 0.00280571 0.00251579 6.88434e-05 0.00386429 0.0044136 0.00182438 0.00307655 0.00037694 0.00184441 0.00466537 0.00325775 0.00198555 0.0039444 0.00158405 0.00284004 0.00434494 0.0021801 0.00400925 0.00071907 0.00352097 0.00352287 0.00109386 0.00462341 0.00221062 0.00454712 0.000298977 0.000921249 0.00023675 0.0033741 0.00297356 0.00266647 0.000216603 0.00280762 0.00164795 0.00251389 0.00055933 0.0030365 0.00283051 3.37958e-05 0.003088 0.00456238 0.00395203 0.00495911 0.00479507 0.00395966 0.0014267 0.00312424 0.00238991 0.00097847 0.00191116 0.000269413 0.0022583 0.00490952 0.000619888 0.000597 0.00369263 0.00293732 0.00235748 0.000535488 0.00114632 0.00450134 0.00208282 0.00267982 3.1054e-05 0.00150299 0.00218391 0.00306129 0.0045929 0.00312805 0.0035305 0.000749111 0.00373077 0.00415421 0.00316811 0.00219154 0.000762939 0.00284195 0.00264168 0.00475693 0.00240135 0.00251198 0.00268364 0.00409698 0.000285625 0.0033474 0.00383568 0.00354004 0.00398254 0.00278854 0.00482941 0.00073576 0.000148177 0.00296974 0.000570297 0.00475311 0.00162888 0.000967979 0.00228882 0.00460052 0.00439453 0.00126266 0.00174046 0.000913143 0.00450897 0.00353241 0.0036335 0.00450134 0.00389671 0.00299644 0.00145531 0.000756741 0.00167561 0.00328827 0.000366688 0.000275135 0.00161552 0.00295258 0.00426865 0.00143528 0.000865459 0.000669956 0.00497437 0.000897408 0.00158787 0.00284195 4.673e-05 0.00450134 0.00488663 0.00278473 0.000423908 0.00166512 0.00364304 0.000712395 0.00276184 0.00136566 0.00487137 0.00333977 0.00127792 0.000541687 0.00388145 0.00391388 0.00380707 0.00457382 0.00329399 0.00284195 0.00100899 0.00349236 0.00476074 0.00444794 0.00496674 0.00409317 0.0027256 0.00225639 0.00445175 0.00486755 0.00296783 0.0018301 0.00161552 0.00435638 0.00107861 0.00367546 0.00182819 0.00400925 0.00391388 0.00350761 0.0031147 0.00246811 0.0042038 0.00356102 0.00222015 0.00015521 0.0018158 0.00365448 0.00237846 0.00172234 0.00320435 0.000630856 0.000857353 0.003685 0.000635147 0.00184822 0.00302124 0.000515461 0.00401306 0.00472641 0.00489426 0.00440598 0.00313759 0.00465393 0.00362396 0.00358391 0.000205398 0.00219727 0.00141048 0.00167465 0.000417709 0.00380516 0.00254631 0.00330544 0.00315094 0.0018549 0.00223351 0.0020752 0.00240135 0.00491714 0.00186729 6.20484e-05 0.00460815 0.00436783 0.00175858 0.00315094 0.00178909 0.0010643 0.00111675 0.00209808 0.000364542 0.00325394 0.00377846 0.00466156 0.0018816 0.00148487 0.00185966 0.00413895 0.00450516 0.00213623 1.09673e-05 0.000209808 0.000709057 0.00299072 0.00053215 0.00148582 0.000292063 0.00310707 0.000113428 0.00427628 0.0015316 0.00379372 0.00281715 0.000190854 0.00282669 0.00329399 0.000916481 0.00398636 0.00306129 0.00277901 0.00314713 0.00343132 0.00120163 0.00394058 0.00428391 0.00363922 0.00346184 0.0023613 0.00428391 0.00332451 0.00166702 0.00259018 0.00197411 0.00015521 0.00288391 0.00424957 0.00475693 0.00341415 0.000380754 0.0020504 0.000209451 0.000870705 0.00282669 0.000864506 0.00283241 0.0025692 0.00434494 0.00360107 0.0045166 0.00138855 0.00128365 0.00349808 0.00450897 0.00491714 0.00320435 0.00164986 0.00303268 0.00411224 0.0031395 0.000589848 0.00142956 0.0049324 0.00215912 0.00287056 0.00263596 0.000988007 0.000828743 0.00250435 0.00495148 0.00197029 0.00357056 0.000879288 0.000353575 0.000788212 0.000807762 0.00141811 0.00268364 0.0038662 0.00440216 0.00318718 0.00426483 0.00299072 0.00346947 0.00268555 0.00444794 0.000261307 0.00391769 0.000725746 0.000293493 0.000294924 0.000259876 0.00258064 0.0020256 0.00499725 0.000542641 0.00163651 0.00498962 0.00200462 0.00441742 0.00284576 0.00476456 0.00442505 0.00389671 0.000159025 0.00481415 0.00259781 0.00103855 0.00437546 0.00112057 0.000693321 0.00362587 0.00486755 0.00267792 0.00222397 0.000110567 0.00303078 0.00482559 0.00483704 0.00465012 0.000923634 0.0031147 0.00206566 0.00181484 0.000182986 0.00434113 0.00336456 0.00043726 0.00443649 0.00391388 0.00158691 0.00409317 0.00253868 0.000105977 0.00216675 0.0022316 0.001194 0.00415039 0.00372314 0.00293159 0.00246429 0.00243759 0.00133324 0.00302505 0.00376701 0.00135326 0.00261116 0.000491619 0.00356865 0.00442123 0.00283432 0.00497055 0.000893593 6.09756e-05 0.002285 0.00465775 0.0042305 0.00236702 0.00451279 0.0011301 0.00152111 0.00357437 0.00362015 9.34005e-05 0.0014286 0.00290298 0.00465393 0.00169468 0.000600338 0.00258064 0.00349617 0.00149345 0.00430679 0.00452805 0.00384331 0.00130653 0.00469208 0.00469208 0.00372505 0.00455475 0.00118637 0.00247574 0.00405121 0.00477219 0.00318718 0.00455475 0.00345993 0.000214696 0.00416946 0.00185013 0.00468445 0.0024147 0.000626564 0.00482178 8.51154e-05 0.00338364 0.000702381 0.000776768 0.00324821 0.00490952 0.00347328 0.00380898 0.00212669 0.000694275 0.00108051 0.00382423 0.000272989 0.00245094 0.000903606 0.00315475 0.00275612 0.00283623 0.00409317 0.00469589 0.000964642 0.00356483 0.00349045 0.00129128 0.00457764 0.00266266 0.00279045 0.00161362 0.00169277 0.0016613 0.00489426 0.00101566 0.00333595 0.00287437 0.000259876 0.00271416 0.00103951 0.000455379 0.00434875 0.000136852 0.00484467 0.00163746 0.00205231 0.000677586 0.000635147 0.00206947 0.003088 0.000661373 0.00487137 0.00090313 0.00380135 0.00241089 0.00383949 0.00151443 7.58767e-05 0.00231743 0.00351715 0.00033021 0.00334549 0.0017271 0.0029583 0.00114536 0.00133801 0.00466537 0.00413132 0.000727177 0.00323486 0.00442123 0.00370598 0.00257874 0.000676155 0.000199437 0.00417328 0.000585079 0.00261497 0.00436401 0.000193596 0.00346184 0.00238228 0.000846386 0.000315905 0.000161171 0.00121212 0.000563622 0.0020256 0.000210404 0.00463104 0.00467682 0.00405121 0.000941753 0.00293732 0.0045166 0.00483704 0.000337601 0.00158787 0.00348473 0.00320053 0.00316238 0.00414276 0.00356483 0.00167751 0.00083828 0.00382423 0.00179672 0.000440121 0.00364876 0.00440598 0.000206351 0.000874519 0.00209999 0.00170326 0.000223875 0.000564575 0.00218964 0.000355482 0.00408173 0.00432968 0.000655651 0.000966072 0.00218773 0.00485611 0.00387001 0.000658989 0.00463486 0.00413895 0.00196457 0.000702858 0.000260592 0.000463724 0.00443649 0.000840664 0.00181484 0.0032711 0.00302505 0.00197411 0.00187302 0.000315428 0.00214386 0.00359917 0.00383949 0.000971794 0.00431442 0.000143647 0.00450897 0.00118256 0.000642776 0.00158978 0.00424194 0.00416183 0.00172806 0.00119972 0.00267982 0.00135708 0.000172138 0.00313568 0.00260162 0.000209808 0.00378799 0.00494003 0.00400543 0.00171947 0.00167656 0.00175762 0.00221443 0.00289726 0.003088 0.000885487 0.00432587 0.00355148 0.000853062 0.00427628 9.93013e-05 0.00320816 0.000811577 0.00128746 0.0017128 3.06964e-05 0.00219345 0.00398636 0.00337791 0.0027256 0.00282097 6.99162e-05 0.00304413 0.00494385 0.00112057 0.00293541 0.00417709 0.00396347 0.00164604 0.00178623 0.00479889 0.00111866 0.00105762 0.000769615 0.00247955 0.00130653 0.00277901 0.000364542 0.00189304 0.00230598 0.0038929 0.00360298 0.00115585 0.000122666 0.00128651 0.0020504 4.20213e-05 0.00235748 0.00426102 0.00461578 0.00115681 0.00495529 2.99811e-05 0.00167656 0.0039444 0.000492573 0.00221252 0.00190353 0.00416183 0.00355911 0.00177479 0.000123143 0.00346756 0.00210571 0.00429153 0.00287628 0.00469971 0.00440216 0.00229073 8.65459e-05 0.000343323 0.00160313 0.00296211 0.00304985 0.00256157 0.000723839 0.00438309 0.00369072 0.00186634 0.00414276 0.000451088 0.000319958 0.00252914 0.00466537 0.00074482 0.00284767 0.000298738 0.000846386 0.00034523 0.00453186 0.00223732 0.00053215 0.00332642 0.00251198 0.00204659 0.00363922 0.000860214 0.00192261 0.00133514 0.00154114 0.00088644 0.0024128 0.00314903 0.000297785 0.000984192 0.00139618 0.00354004 0.00163746 0.00212669 0.00352478 0.000795364 0.00219727 0.00314713 0.00462341 0.00178528 0.00409698 0.00320053 0.00357437 0.00369263 0.00485611 0.00123024 0.000212908 0.00123882 0.000225067 0.00352669 0.00417328 0.00466919 0.00235367 0.00256157 0.00131512 0.00049448 0.00399399 0.000713825 0.00402832 0.00439835 0.00250053 0.00457001 0.00206184 0.00100231 0.0032177 0.0019989 0.00307083 0.00218582 0.00296593 0.00475693 0.00276566 0.00452042 0.000692368 7.7486e-06 0.00306511 0.00270844 0.00390244 0.00410843 0.00476837 0.00304985 0.00145054 0.00413513 0.00187969 0.00304604 0.00309944 0.0022068 0.000993729 0.00222015 0.00462341 0.00335693 0.000407696 0.00286293 0.000603199 0.00500107 0.00498581 0.00347328 0.0018692 0.00200844 0.00462723 0.00122452 0.00332069 0.00240517 0.000174761 0.000554562 0.00447845 0.00445938 0.00457764 0.00153732 0.0014925 0.0032959 0.00297546 0.00492096 0.00307846 0.00077343 0.00415802 0.00407791 0.000460148 0.00444031 8.21948e-05 0.00431824 0.00449371 0.00425339 0.00326347 0.00164413 0.00272751 0.00118923 0.0043602 0.000883579 0.00185299 0.00379753 0.00153065 0.00308037 0.00109673 0.00436401 0.00323868 0.00236511 0.00117111 0.00416946 0.000492573 0.0010252 0.00117397 0.002985 0.0031414 0.00491333 0.000881672 0.00400162 0.000776291 0.00180531 0.004776 0.000650883 0.00136471 0.00404739 0.00482941 0.000462055 0.00291634 0.00202751 0.00449753 0.000423908 0.000905514 0.000253439 0.00150681 0.000950813 4.30346e-05 0.000637531 0.000564098 0.00365257 0.00119686 0.00450897 0.00164223 0.00437164 0.00118256 0.00189209 0.00271225 0.00257874 0.00206947 0.00194454 0.00170135 0.00201035 0.002285 0.00191498 0.00329018 0.00440598 0.00286293 0.00214005 0.00129223 0.00432587 0.000866413 0.00289917 0.00363731 0.00365257 0.00201988 0.000589848 0.00381851 0.00266838 0.00361061 0.00298882 0.00211525 0.00466919 0.00497055 0.00273895 0.00365067 0.000139952 0.00431824 0.00499344 0.00162697 0.00424957 0.00305748 0.0022049 0.00263596 0.00389862 0.00125694 0.00231361 0.00423431 0.00338936 0.00183964 0.000689983 0.00201416 0.00465775 0.00336647 0.00209618 0.00284386 0.000208497 0.00497818 0.00309563 0.00389671 0.00465775 0.00170803 0.00405502 0.00436401 0.00333023 0.00294304 0.00446701 0.00224304 0.00122166 0.00407028 0.00348663 0.00204849 2.85506e-05 0.00476837 0.00302696 3.27229e-05 0.0024929 0.00299263 0.00150108 0.00230789 0.00247765 0.00292778 0.00434875 0.00416183 0.0038929 0.00274277 0.00306702 0.00367165 0.00283241 0.00387573 0.0049324 0.0039444 0.00307083 0.00079155 0.00238228 0.00141811 0.000769138 0.00388527 0.000294924 0.000395536 0.00332069 0.00261688 0.0022316 0.00153446 8.64267e-05 0.0014677 0.00133896 0.000183582 0.00402069 0.00166893 0.00445938 0.00405121 0.00482178 0.00478745 0.00295639 0.00155735 0.0045929 0.000253201 0.00112915 0.00181389 0.00206184 0.0047226 0.00289726 0.000933647 0.00298309 0.00466919 0.00067091 0.00490952 0.000769615 0.00410461 0.00338745 0.00201988 0.00108624 0.0038681 0.00423813 0.00264931 0.00204849 9.15527e-05 0.000743389 0.00402069 0.00209808 0.00169563 0.00148582 0.00358963 0.00498962 0.00275993 0.00444794 0.000842571 0.00441742 0.00351334 0.00211143 0.00431824 0.00117493 0.00281906 0.000132799 0.00190067 0.00180912 0.000456333 0.000226259 0.00171185 0.0017767 0.00497818 0.0047226 0.000655651 0.00259209 0.00238609 0.00200462 0.00465393 0.00257683 0.00404739 0.00440979 0.00381279 0.00232124 0.000369549 0.00235176 0.00100327 0.00104237 0.000887871 0.00177097 0.00455856 0.00216675 0.000891685 0.00376129 0.000252247 0.000413418 0.000192881 0.00232697 0.00301933 0.000908852 0.0025959 0.00355148 0.00462341 0.00264549 0.00485611 0.00273705 3.21865e-05 0.0023632 0.00261116 0.000761032 0.0032711 0.000652313 0.00227165 0.00491333 0.000662804 0.000301361 0.00033927 0.000480652 0.00409698 0.00314713 0.00391769 0.000385761 0.00485992 0.0044136 0.00315285 0.0046463 0.00199127 0.00244522 0.00342941 0.00140762 0.00338364 0.00247955 0.00395584 0.00109386 0.00373077 0.00226974 0.00204086 0.00461197 0.000753403 0.000654697 0.00190926 0.00271034 0.0047226 0.00161648 0.000487328 0.00473785 0.00428391 0.000130177 0.000589371 0.00414658 0.000692368 0.00284767 0.002388 0.00153351 0.000283003 0.00468445 0.00452042 0.00361061 0.0032711 0.00196075 0.00486755 0.0035553 0.00246429 0.00163174 0.000579357 0.00485992 0.00137234 0.000937462 0.00107479 0.00380516 0.0047226 0.00250816 0.00331116 0.00173664 0.000642776 0.00340652 0.00195694 0.000131011 0.00250244 0.00263977 0.00111675 8.46386e-06 0.00223351 0.00252724 0.000405073 0.00411224 0.00120068 4.84586e-05 0.00112534 0.000421047 0.00413132 0.00357437 0.00122261 0.000319242 0.00213432 0.0035305 0.00359154 0.000967026 0.00370026 0.00478363 0.00257874 0.00214958 0.000115156 0.00253677 0.00343323 0.000690937 0.00336266 0.000196576 0.00215912 0.00427246 0.00211143 0.000442266 0.00028348 0.000516415 0.00242615 0.0033741 0.000454426 0.00416183 0.00388145 0.000305891 0.00161171 0.00188541 0.00251198 0.00225067 0.0023365 0.000523567 0.0018692 0.000108838 0.00224113 0.00446701 0.00387955 0.0012455 0.00365829 0.00157547 0.00248146 0.000252247 0.00291252 0.00141335 0.00146675 0.000630379 0.00446701 0.00225639 0.00325394 0.00404739 0.00141525 0.00136662 0.00192833 0.00210762 0.00466156 0.00433731 0.00222588 0.000145912 0.000535965 0.000981331 0.00119114 0.00412369 0.00448227 0.000139475 0.00286674 0.00402832 0.0021019 0.00262642 0.00143051 0.00329399 0.000451565 0.00411224 0.00403595 0.000957966 0.00319099 0.00416183 0.00234985 0.00290108 0.000544548 0.00231171 0.00443268 0.00232506 0.00233078 0.000980377 0.000193596 0.00307846 0.00282288 0.00054121 0.00370789 0.000917435 0.00174332 0.00240326 0.0032196 0.00310898 0.00380516 0.00143337 0.00246239 0.00341034 0.00255013 0.0038414 0.00150013 0.00273514 0.00122356 0.00221825 0.00405121 0.000519276 0.00115013 0.00395966 0.00283241 0.00413895 0.00487518 0.00482559 0.0047493 0.00275803 0.00046277 0.00370216 0.00282097 0.00372887 0.00227737 0.000778198 0.00497818 0.00444794 0.00401688 0.00205803 0.00106621 0.00147247 0.0031147 0.00124073 0.0039978 9.44138e-05 0.00240135 0.00366974 0.00341797 0.00210571 0.00346565 0.00183582 0.00116253 0.00392532 0.0036335 0.00353241 0.000158668 0.00119686 0.0018549 0.00290871 0.000439882 0.00116062 0.00406265 0.0037632 0.00402451 0.00147247 0.00390244 0.00112438 0.00144958 0.00424576 0.00372124 0.0016613 0.00283623 0.00349808 0.000459671 0.000268936 0.00431442 0.00314903 0.00434875 0.000438452 0.00432968 0.000206232 0.00479126 0.00113678 0.00375938 0.00200462 0.00201607 0.00126648 0.00253487 0.00092268 0.000285387 0.00183487 0.00359917 0.00237083 0.00461197 0.000850677 0.00359154 0.00434875 0.000646591 0.00487137 0.00377083 0.00458527 0.00018847 0.00142956 0.00411606 0.00137329 0.000258684 0.000739574 8.24928e-05 0.00391388 0.00174522 0.00374794 0.000274658 0.000391006 0.00394821 0.00185204 0.000555038 0.0020256 0.00325584 0.00218201 0.0010128 0.00222015 0.00370979 0.000480175 0.00255775 0.00421906 0.00496674 0.00315285 0.00142765 0.000629902 6.67572e-05 0.00169086 0.00242233 0.00273132 0.000180244 0.000306129 0.000115812 0.00253677 0.00133324 0.00222588 0.00486755 0.00399017 0.00142097 0.00277901 0.000988007 0.00395203 0.000438213 0.00418854 0.0012064 0.00217056 0.00214005 0.000510693 0.0045433 0.00074482 0.00453949 5.22733e-05 0.000867844 0.00419617 0.00155163 0.00424576 0.00455856 0.00450134 0.00433731 0.00418854 0.00126839 0.00421524 0.003088 0.00492096 0.00305176 0.00325775 0.00327301 0.00276184 0.000928879 0.0049057 0.000479698 0.00374222 0.0026226 0.0014534 0.00114059 0.00251961 0.00466156 0.00287056 0.00494766 0.00214958 0.00208092 0.0031395 0.00453568 0.000347137 0.0027523 0.000772953 0.00359344 0.000677109 2.27094e-05 0.00268745 8.29697e-05 0.00267792 0.000228405 0.000770092 0.00421524 0.00399017 0.00151825 0.00199318 0.00224686 0.000102699 0.003088 0.00402451 0.00117111 0.00200081 0.0024662 0.00251007 0.00166702 0.000526905 0.00320435 0.000757217 0.000976086 0.000287056 0.00457382 0.00415421 0.000794888 0.00433731 0.00253677 0.000641346 0.000565529 0.00111389 0.00444794 0.00225449 0.00348663 0.00195122 0.00311279 0.003582 0.00250435 0.00380135 0.00416183 0.00279999 0.00271988 0.00293922 0.000125766 0.00494385 0.000353813 0.00408936 0.000685215 0.000765324 0.00179577 0.00126743 0.00109386 0.00281715 0.00239944 0.000465155 0.0025692 0.000987053 0.00240135 0.00138474 5.23925e-05 0.00444031 0.0018692 0.00208092 0.0043869 0.00380325 0.00274086 0.00451279 0.00460434 0.00232697 0.0028286 0.000142813 0.000701427 0.00200081 0.00413513 0.00227737 0.00346756 0.00318909 0.00327873 0.00384712 1.13249e-06 0.00150394 0.0034771 0.000454426 0.00261879 0.00447464 0.00481796 0.00352859 0.00382042 0.00172329 0.00125885 0.00333595 0.000746727 0.00235367 0.000111461 0.00379944 0.00102806 0.0042038 0.00387383 0.000880718 0.00442123 0.000465393 0.00101089 0.00186157 0.00086832 0.00172615 0.00283813 0.000784874 0.00387955 0.000168324 5.47767e-05 0.00160027 0.00263405 0.00314903 0.00440598 0.00320625 0.000113428 0.00347519 0.00442505 0.00375748 0.00131512 0.00253868 0.000620842 0.00304413 0.00346565 0.000388861 0.00201988 0.00256729 0.00403595 0.000494957 0.0023632 0.00283623 0.00267982 0.000921249 0.0029335 0.00392914 0.00498962 0.000263691 0.000213385 0.00264549 0.00301743 0.000411272 0.00354958 0.000580788 0.000986099 0.00389671 0.00227928 0.001544 0.00183868 0.0038166 0.000902176 0.000688553 0.00250435 7.45058e-05 0.00173664 0.00168896 0.00252342 0.00246239 0.0017519 0.00101185 0.000799656 0.00280571 0.0022316 0.00427628 0.00455475 0.00438309 0.00482559 0.00101185 0.00363159 0.00285721 0.00292015 0.0022831 0.00291061 0.000338793 2.97427e-05 0.00234032 0.00395203 0.00461578 0.00360107 0.000629425 0.00359535 0.00307655 0.00193405 0.00392532 0.000506878 0.00201416 0.0037117 6.21676e-05 0.00464249 0.00230026 0.000348091 0.00455093 0.00061655 0.00447464 0.0010252 0.00466156 0.00248909 0.00179958 0.000804424 0.00363159 0.00417709 0.00159454 0.00489044 0.0023632 0.00283051 0.000733376 0.000498772 0.000432491 0.00376511 0.0037117 0.00157738 0.00422668 0.0026722 0.00416183 0.000930309 0.00137997 0.00291443 0.00465012 0.000286579 0.00409317 0.000823021 0.00219917 0.00183296 0.000328779 0.00394058 0.00256157 0.000884056 0.00260353 0.00295448 0.00222206 0.000715256 0.00480652 0.00208855 0.000649929 0.00325584 0.00293922 0.00127411 0.00143719 0.00402451 0.000281096 0.00139141 0.00468445 0.00419235 0.00453949 0.00297356 0.0038681 0.00172043 0.00191975 0.00189018 0.00213051 0.00353432 0.0012207 0.000888824 0.00108242 0.00362206 0.00315666 0.0039711 0.00392914 0.000724792 0.000437498 0.00128365 0.00320053 0.00284767 0.00444794 0.00458908 0.000761986 0.000595093 5.02467e-05 0.00139904 0.000614643 0.00228882 0.00094223 3.80278e-05 0.00448227 0.00498962 0.00402832 0.0001508 0.00267601 0.00304985 0.0042572 0.0020504 0.00130653 0.00377464 0.00395584 0.00393677 0.00473785 0.00200081 0.00329018 0.00262833 0.00209045 0.00203705 0.0018568 0.00421906 0.00235367 0.00292397 0.000828743 0.00273514 0.00269318 0.00253868 0.00321579 0.00272369 0.00159168 0.00394058 0.00282288 0.0020771 0.00163937 0.00460434 0.00465393 5.34654e-05 0.000465393 0.000670433 0.00313759 0.00130844 0.00291252 0.00277519 0.00100136 0.00328445 0.00471497 0.00178337 0.000159025 0.00236702 0.000337362 0.00249672 0.00345993 0.000380516 0.00114918 0.00248718 0.00271416 0.00247383 0.00400543 0.00154018 0.000570297 0.0028019 0.00384521 0.00217628 0.000417709 0.00299263 0.0042305 0.000916481 0.00456619 0.000518322 0.000634193 2.03848e-05 0.00392151 0.0028019 0.00330353 0.00260925 0.00397873 0.0012579 0.00265312 0.000281572 0.000686646 0.000710011 0.00331879 0.000539303 0.00378609 0.00227165 0.00347137 0.00178337 0.00383949 0.00408554 0.00463486 0.00103474 0.00300407 0.000172377 0.00146484 0.000211477 0.000486374 0.0015049 0.000301361 0.00291634 0.00362206 0.00375366 0.00349045 0.000566959 0.00143433 0.00131035 0.000331163 1.09076e-05 0.00134659 0.000169039 0.00233841 0.00270462 0.00102425 0.00114441 0.00326729 9.81092e-05 0.00149727 0.00240135 0.00260544 0.00479507 0.00380325 0.00401688 0.00164795 0.00188351 0.00343513 0.00353622 0.000554085 0.00133896 0.000152707 0.00200462 3.06368e-05 0.00334358 0.00434494 0.00187874 0.00140572 0.000506878 0.00402832 0.00242043 0.00438309 0.000761032 0.00109863 0.00366592 0.000327587 0.00407791 0.00429916 0.000158072 0.000334024 0.00236511 0.00102806 0.00112724 0.00217247 0.00116444 0.00414276 0.00445557 0.00407028 0.00480652 0.00331879 0.000229836 0.00437927 0.00471497 0.00484467 0.00374603 0.00466537 0.000442028 0.00417328 0.00365639 0.00480652 0.000573158 0.00131702 0.000987053 0.00072813 0.00134754 0.000419617 0.00097847 0.00473785 0.00484848 1.94907e-05 0.000921249 0.00463867 0.00343323 0.0040741 0.00495148 0.000403404 0.00286674 0.0043335 0.00123215 0.00296593 0.004879 0.000968933 0.00146484 0.00248146 0.0032692 0.00303268 0.00354004 0.0015707 0.00222969 0.00150585 0.00218582 0.000253916 0.00476837 0.000894547 0.000383854 0.00468445 0.00418091 0.00486374 0.00411606 0.000165462 0.00284767 0.000737667 0.00290108 0.000417471 0.00227737 0.00429535 0.00162792 0.001688 0.00458908 0.00318527 0.000829697 0.00437164 0.000477791 0.00295067 0.00316429 0.00166321 0.000805855 0.00320435 0.00193882 0.00408173 0.00114632 0.00332642 0.00287819 0.000396967 0.000211596 0.00428391 0.000737667 0.000515461 0.000531673 0.0014658 0.00265121 0.0043335 0.00434494 0.00178242 0.000490665 0.00219154 0.00473785 0.00020802 0.00155449 0.00391006 0.00397873 0.00426102 0.00271988 0.00295258 0.000695705 0.000173569 0.000776291 0.00378418 0.00184345 0.0014143 0.00120926 0.00435638 0.00183582 0.00444031 0.0047493 0.00436401 0.00186062 0.00322914 0.00216293 0.00365257 0.00349426 0.00215149 0.00201988 0.00300598 0.0032444 0.000570297 0.00352669 0.00179863 0.00211525 0.00156784 0.00284195 0.000167847 0.00488281 0.00485229 0.00141144 0.00328827 0.00388527 0.00472641 0.00333977 0.00225258 0.00419998 0.00411224 0.00465012 0.00350952 0.00400162 0.00479507 0.00192928 0.00366211 0.000642776 0.00102711 0.00441742 0.003479 0.0035553 0.00184917 0.00289154 0.00041914 0.00297165 0.00088501 0.00210381 0.00119972 0.000637531 0.00447845 0.00455093 0.00314522 0.000787735 0.00365257 0.00494385 0.00389862 0.00489807 0.00402451 0.00209808 0.00232506 0.00378227 0.00405121 0.000706673 0.000405788 0.00178814 0.00484467 0.00345802 0.000113189 0.0010643 0.00363159 0.00336647 0.000191927 0.00179386 0.00375557 0.00432968 0.00477219 0.00439835 0.00432968 0.00356102 0.00331879 0.00192356 0.000896454 0.00372314 0.00383568 0.000782967 1.15037e-05 0.00260925 0.00379372 0.0022049 0.00444412 0.0026474 0.00442505 0.00226402 0.00341988 0.000305891 0.00370216 0.00336266 5.19753e-05 0.00336647 0.00394821 0.00415421 0.00497055 0.00283623 0.00430679 0.000455856 0.000844479 0.00165272 0.00477219 0.000518322 0.00248528 0.00494385 0.00307846 0.00278473 0.00118732 0.00234222 0.00234413 0.00281525 0.00205803 0.000887871 0.000761509 0.00374794 0.00244522 0.00364685 0.00212479 0.00362778 0.00293922 0.000685215 0.00282288 0.00147247 0.00317001 0.00321579 0.00276184 0.00195026 0.00133514 0.00400925 0.00449753 0.000507832 0.00226974 0.00197029 0.00335884 0.00276947 0.00421524 2.98023e-05 0.00322914 0.000574112 0.00378227 0.00114059 0.00109291 0.00205612 0.000342369 0.00234413 0.00177193 0.000413418 0.000679016 0.00456238 0.0043602 0.00391769 0.00357437 0.00335121 0.00317001 0.00195312 0.00383377 0.00110817 0.00353432 0.00152302 0.00391769 0.00303078 0.0043602 0.00042963 0.00272751 0.00457764 0.0030632 0.00279617 0.00164413 0.00416183 0.00122547 0.00144005 0.00301361 0.00194645 0.00206184 0.00266457 0.00437927 0.00382233 0.0042572 0.00419998 0.00273514 0.00272369 4.40478e-05 0.00309944 0.00456238 0.00106335 0.00161076 0.00130844 0.00446701 0.00411224 0.00130844 0.00103474 0.00263214 8.7142e-05 0.00208664 0.000445127 0.00493622 0.0047493 0.00376129 0.00320053 0.00104141 0.000839233 0.000718594 0.00226402 2.23517e-05 0.00157356 0.00305176 0.00497055 0.00260735 0.000513554 0.000262022 0.00164318 0.00279808 0.00418854 0.000280619 0.00447464 0.00447845 0.00226212 0.00452423 0.0007658 0.00368309 0.00237274 0.00487137 0.00262833 0.00429153 0.00409317 0.00419235 0.000941753 0.00462341 0.00353241 0.00029397 0.00441742 0.00168896 0.00497818 0.0023098 0.00405502 0.00351715 0.0048027 0.00357437 0.00247574 0.00487518 0.00363541 0.00248528 0.00165272 0.00184631 0.000384331 0.00383759 0.00463486 0.00211334 0.00260353 4.47631e-05 0.00215149 0.000765324 0.00240707 0.00251198 0.00245476 0.00396347 0.000247478 0.003582 0.00275612 0.00172234 0.00470734 0.00376701 0.00400543 0.00313568 0.00274086 0.00358772 0.00264359 0.0025959 0.00119495 0.00364685 0.00498199 0.00335884 0.00285721 0.00178528 0.000321388 0.00354004 0.00117397 0.00392532 0.00179958 0.000356674 0.00392532 0.00194263 0.00178337 0.00258064 0.00416183 0.00150776 0.00270653 0.00161552 0.00062418 0.000846863 0.000402927 0.00231552 0.00429153 0.00052166 0.00426483 0.002985 0.00457764 0.000888348 0.00490952 0.0032711 0.000710011 0.000433445 0.0020237 0.00213242 0.00413895 0.00325203 9.44138e-05 0.00452423 0.00265312 0.00039959 0.00312424 0.00233078 0.00158501 0.00138283 0.00474167 0.00358391 0.00129128 0.00174427 0.00235367 0.000190854 0.00149536 0.00185871 0.00310898 0.000134826 0.00459671 0.001194 0.000687122 0.00468826 0.00378036 0.00476456 0.00429916 0.00431824 0.00202751 0.00348282 0.000617504 0.00491333 0.00146675 0.000281811 0.004673 0.0032444 0.00172806 0.00271606 0.0043869 0.00435257 0.00488281 0.0049057 0.0021801 0.000421524 0.00188541 0.00472641 0.00260353 0.00392914 0.00430679 0.00214767 0.00342751 0.0013237 0.000975132 0.0041008 0.00260162 0.00196838 0.000205398 0.00060463 0.00348663 0.00163174 0.00152969 0.00437164 0.00432205 0.00367355 0.00138569 0.00178814 0.00138664 0.00320435 0.000608921 0.00186062 0.00225258 0.00195312 0.00407791 0.00486755 0.00460434 0.000494957 0.000592232 0.00490189 0.000721931 0.0045166 0.00372887 0.00174236 4.673e-05 0.00330544 0.00388145 0.00463486 0.000546932 0.000349522 0.00444031 0.00352859 0.00107956 0.00361252 0.00489426 0.000301361 0.00357437 0.000895023 0.00431061 0.00314713 0.00157547 0.0011692 0.00341415 0.00317192 0.00296974 0.00326729 0.000795841 0.00444794 0.00214958 0.0046196 0.00229645 0.00314713 0.000608921 0.00115395 0.00010246 0.00041461 0.000810146 0.00173664 0.00191784 0.00358391 0.00240326 0.00436401 0.00254059 0.00491333 0.00213051 0.00260925 0.00473404 0.00257492 0.00187588 0.00278664 0.00227547 0.0047226 0.00373459 0.00296402 0.004673 0.00429153 0.00312233 0.00383568 0.00399399 0.00398254 0.000452995 0.000128269 0.00177002 0.0014143 0.000278473 0.000339031 0.000508308 0.00308418 0.00100994 0.00439835 0.00498581 0.00391769 0.00362587 0.00143623 0.00358582 0.00325394 0.000674248 0.000324011 0.00152588 0.00347137 0.00294304 0.00358582 0.00437164 0.00402832 0.00049448 0.00153446 0.001544 0.00320053 0.00167084 0.00107574 9.20296e-05 0.00431442 0.000555992 0.00126076 0.00496292 0.00413895 0.00122547 0.000267744 0.00106621 0.00321198 0.00382996 0.00375557 0.000279665 0.00309372 0.00173187 0.000909328 0.00209618 0.00139332 0.000246048 0.00416946 0.00407028 0.00173473 0.00375938 9.56655e-05 0.00359154 0.000704765 0.00327682 0.00217628 0.00383949 0.00104713 0.00168896 0.00253296 0.00145626 0.00335884 0.000126839 0.00161934 0.000464439 0.000921249 0.00414658 0.000380754 0.00260735 0.00492096 0.00212097 0.00317955 0.00217819 0.00276375 0.00392532 0.000812531 0.00291443 0.00285149 0.00077486 0.00124454 0.000989914 0.00143433 0.00288773 0.00287819 0.00386047 0.00204849 0.00333405 0.00434113 0.00164795 0.000267744 0.0039711 0.0032177 0.00222969 6.71148e-05 0.00192451 0.000258923 0.00265312 0.00104713 0.00136852 0.00105953 0.00163364 2.38419e-07 0.00133419 0.0047493 0.00208855 0.00272369 0.00305367 0.000251293 0.000607967 0.00253105 0.00298691 0.00137043 0.000145793 0.00440216 0.00455856 0.000452518 0.00299644 0.00344086 0.00028801 0.000422955 0.00166702 0.00295258 0.00464249 0.000526905 0.00194645 0.00377274 0.00394821 5.07236e-05 0.00279808 0.00240517 0.00151825 0.00495529 0.00307655 0.00417709 0.00229836 0.00316238 0.00422287 0.00335503 0.000734329 0.000901222 0.00455475 0.00322342 0.00456238 0.00276756 0.0038414 0.000219226 0.00163937 0.00460815 0.00290871 0.00360489 0.00308609 0.00379562 0.00460815 0.00369835 0.00103951 0.00455093 0.00270462 0.00326538 0.00240517 0.00281715 0.00413895 0.00294113 0.00234985 0.00292015 0.00096035 0.0048027 0.00204086 0.00410461 0.00169945 0.000226498 0.0042038 0.000655174 8.64267e-05 0.000884533 0.00210381 0.000751019 0.00117016 0.000576019 0.0014658 0.00382233 0.000371695 0.0031414 0.000804424 0.00469589 9.92417e-05 0.00172424 0.00057888 0.00391006 0.0037899 0.002388 0.000159144 0.00367546 0.00314713 0.000800133 0.00310898 0.00447464 0.00365448 0.00025177 0.000772476 0.00283241 0.000204802 0.00208664 0.000183702 0.00467682 0.00495911 0.0027504 0.00408554 0.00184536 0.0013876 0.00117016 0.00457382 0.00404358 0.00307274 0.00402069 0.0038929 0.00242233 0.000637054 0.000127673 0.00463486 0.000589848 0.00319672 0.00252724 0.0020237 0.000730515 0.000907898 0.00300026 0.00421906 0.0026722 0.00158787 0.00376892 0.000896454 0.00281715 0.00323868 0.00386047 0.0042305 0.00415421 0.00214195 0.000828266 0.00272369 0.00442123 0.00355911 0.00278091 0.00322533 0.000163436 0.000984192 0.00450516 0.000925064 0.000627518 0.00490952 0.00118828 0.00469208 0.00224876 0.00309181 0.00323677 0.00195885 0.00489807 0.00222206 0.00403976 0.00484848 0.00291824 0.00324059 0.00305748 0.00321388 0.00415421 0.000304699 0.00141239 0.00130272 0.00497818 0.00331688 0.00408936 0.00135708 0.00145912 0.00299835 0.00299072 0.00171471 0.00133705 0.000519276 0.000835419 0.0011797 0.00475311 0.00291061 0.00195503 0.00249481 0.00208473 0.000761032 0.00355911 0.000524998 0.000335217 0.00471878 0.00396347 0.00432968 0.00197029 0.0022831 0.00334358 0.00237846 0.00390053 0.0042305 0.00407791 0.000989914 0.000545979 0.00357056 0.00214195 0.00485992 0.00430679 0.00195122 0.00442505 0.00337219 0.000528336 0.00288582 0.0032711 0.00482941 0.000983238 0.0020504 0.00238419 0.00254059 0.0031414 0.00194073 0.000236869 0.00422287 0.00332832 0.000598907 0.00291824 0.00352859 0.00189304 0.00408173 0.0031929 0.00465775 0.00225258 0.00189972 0.000871181 0.00171471 0.00233841 0.0015173 0.00457382 0.0022049 0.00342941 0.00195312 0.00383759 0.00106525 0.00343513 0.00339699 0.00437546 0.00274849 0.000617504 0.00173187 0.00192642 0.000309944 0.00408936 0.0049057 0.00176144 0.000403166 0.00402832 0.000774384 0.00189972 0.00491333 0.00135326 0.00113297 0.00324059 0.00271797 0.00231934 0.00390053 0.00321007 0.00177765 0.00190544 0.000966072 0.00168419 0.00313568 0.00268745 0.00460052 0.00355148 0.00268173 0.00321579 0.00192356 0.000684261 0.00476837 0.0013876 0.00364304 0.00047183 0.00115108 0.00449371 0.003479 0.00252342 0.000862598 0.00408173 0.00269508 0.00256729 0.00293541 0.00200081 0.000198245 0.000524521 0.00302315 0.00037384 0.00215149 0.00421143 0.00413132 0.00197029 0.000833511 0.00227737 0.000236988 0.00192547 0.00280762 0.00415421 0.00312996 0.000501633 0.00301552 0.00199127 0.00167656 0.00433731 0.00498962 0.0032177 0.00362587 0.00256348 0.00414276 0.00308609 0.00484848 0.00149727 0.0042305 0.00273705 0.000208378 0.00045085 0.00494003 0.00115585 0.000657082 0.00135708 0.000448704 0.000257015 0.00215912 0.00353813 0.00463104 0.00449371 0.00162888 0.000908852 0.00389481 0.00319672 0.00275993 0.00283241 0.00380325 0.00312805 0.00142765 0.00119305 0.00210953 0.00042963 0.00369453 0.00148296 0.00176144 0.00276566 0.00118828 0.000816345 0.00186729 0.00434875 0.00249672 0.00164318 0.00292587 0.000221729 0.0047226 0.00447464 0.00440598 0.00177574 0.00278664 0.00324631 0.00390625 2.67029e-05 0.00356293 0.000169516 0.00413895 0.0035553 0.0024662 5.0962e-05 0.00288391 0.000711441 0.000565052 0.000965118 0.00373077 0.00108624 0.000583649 0.00352097 0.00421906 0.0024128 0.000448465 0.0041008 0.00149727 0.00100708 0.00293159 0.0024128 0.00430298 0.00398254 0.00411224 0.00357056 0.0037899 0.00288963 0.0049057 0.00281906 0.000564575 0.00156879 0.00291061 0.00347137 0.00234795 0.00232697 0.00078392 0.00458145 0.0036087 0.00279808 0.000916481 0.00353432 0.00292397 0.00232124 0.00166893 0.00279808 0.000470161 0.00395203 0.00255394 0.000950813 0.00323296 0.00466537 0.000990868 0.00453568 0.00203323 0.00256538 0.00302696 0.00398636 0.00100327 0.00143814 0.00414276 0.00452423 0.00365639 0.00134182 0.00235939 0.000394106 4.46439e-05 0.00279236 0.00477982 0.000172853 0.00032568 0.00289536 0.00134468 0.00239563 0.00156784 0.0043602 0.00203514 0.000543594 0.00238419 0.00490952 0.000334501 0.00426102 0.00492859 0.00108814 0.000224113 0.00490189 0.0022831 0.000279427 0.00442505 0.000836372 0.00392151 0.000678539 0.00122547 0.00457382 0.00157642 0.0019083 0.000763893 0.00226212 0.00473022 0.00316811 0.0029068 0.000564098 0.0032196 0.00210381 0.00450897 0.00393295 0.00462723 0.001688 0.00360107 0.00411987 0.00233841 0.00169373 0.00460052 0.00468826 0.00335693 0.000695229 0.0046463 0.00393677 0.00230026 4.90546e-05 0.00385284 0.00165272 0.00271606 0.00366974 0.0044136 0.00031209 0.001297 0.00266075 0.00246429 0.00466156 0.000277042 0.00478363 0.0017004 0.00282097 0.00345039 0.00248528 8.57711e-05 0.00419998 0.00381088 0.00168705 0.00240898 0.00188828 0.00237083 0.00354004 0.00321007 0.00208664 0.000822544 0.00277328 0.00165844 0.00422668 0.000777721 0.00084877 0.000279188 0.00483322 0.00274086 0.00160027 0.000671864 0.00211143 0.0048027 0.00189209 0.00471497 0.00408936 0.0027771 0.00470352 0.00198746 0.00463486 0.00238609 0.000260592 0.000110149 0.00104713 0.000142336 0.00219345 0.00154114 0.000745773 0.00399399 0.00328636 0.00315285 0.00416183 0.00437927 0.00303459 0.00144196 0.00332642 0.00411987 0.00480652 0.000189185 0.0037117 0.00322151 0.00336075 0.00422287 0.00334549 0.0038147 0.00266838 0.00320625 0.00272179 0.00356102 0.000288486 0.00225258 0.00386429 0.00416183 0.000334024 0.00471878 0.000703812 0.00328064 0.000570774 0.00373268 0.00275993 0.000276804 0.00426483 0.00320053 0.00214386 0.000447273 0.000191808 0.00137901 0.00185394 0.00443649 0.000228286 0.00270271 0.00163174 0.0012598 0.00318718 0.00103855 0.000275373 0.00366402 0.000844002 0.000714302 0.00207329 0.00141048 0.00282478 0.00253868 0.000559807 0.00235176 0.000721931 0.00156784 0.00312805 0.00445938 0.00289917 0.00363541 0.00248146 0.00295448 0.00220871 0.00319862 0.000374794 0.00226784 0.00137138 0.00441742 0.000946522 0.00173759 0.00408173 0.00431824 0.00171757 0.000367165 0.00203705 0.00158882 0.000713825 0.00436401 0.0012064 0.0046463 0.00364113 0.00184059 0.00169849 0.000325441 0.00209427 0.00277901 0.00192738 0.000899792 0.002491 0.00221443 0.00449753 0.00174141 5.66244e-06 0.000995636 0.00252342 0.0037899 0.00456619 0.00117683 0.0032444 0.00293922 0.00345039 0.00348091 0.00208282 0.00376129 0.00222206 0.000497818 0.00441742 0.00264931 0.00395584 0.00469589 0.00123596 0.00163555 0.00405502 0.00204659 0.00139523 0.00409698 0.00314331 0.0029335 0.00295067 0.0028038 0.00142288 0.00364876 0.0006423 0.00203896 0.002491 0.00202179 0.000511169 0.000421047 0.00488663 0.00487518 0.00252342 0.0040741 0.00379562 0.00232887 0.0022068 0.00448608 0.00159931 0.00354576 4.48227e-05 0.00354195 0.00325203 0.000383377 0.00254059 0.00469589 0.00312805 0.00377655 0.00148106 0.0014658 0.00046587 0.00184345 0.00367355 0.000166059 0.00184727 0.00157261 0.0034008 0.000341892 0.00347519 0.00123596 0.00308418 0.00323868 0.00262451 0.00388908 5.69224e-05 0.00062561 0.00421524 0.00330734 0.00308609 0.00494003 0.00333023 0.00107765 0.0045929 0.00130939 0.00395203 0.00254631 0.00333595 0.0026989 0.000431299 0.00284004 0.00409698 2.09212e-05 0.00444412 0.000834465 0.00490189 0.00164127 0.00355148 0.00167942 0.00159931 0.00408554 0.00319672 0.00492859 0.00358963 0.00239944 0.00362396 0.00306892 0.00398636 0.00476837 0.000450373 0.00103664 0.00315857 0.00151062 0.00263596 0.00327682 0.00426483 0.00336266 0.00152588 0.00248718 0.00164986 0.00109005 0.000358343 0.00335121 0.00127411 0.000404358 0.00395584 0.00469589 0.00344086 0.00283241 0.00345993 0.00394058 0.00357056 0.00303841 0.000620365 0.000700474 0.000908852 0.00361824 0.00317001 0.00195503 0.00378036 0.00315475 0.00339508 9.27448e-05 0.00444794 0.00370026 0.0017004 0.00329971 0.00337029 0.00333405 0.00491714 0.00245476 0.00328445 0.00457001 0.000337839 0.00485611 0.00307846 0.00317383 0.000989914 0.00385094 0.00365829 0.00136375 0.00419998 0.00291252 0.000394344 0.00241089 0.000981331 0.000638485 0.00333977 0.00440598 0.00327873 0.00326157 0.00275803 0.00350571 0.001688 0.00203514 0.00236702 0.00182629 0.00253105 0.00190926 0.00227928 0.0038929 3.93987e-05 0.00312805 0.00288391 0.00117588 0.00342941 0.00489044 0.00342178 0.00065136 0.000872135 0.00175667 0.00214767 0.000589371 0.00388336 0.000579357 0.00189209 0.00495529 0.00452423 0.00218201 0.00197983 0.000227094 0.000709534 0.00232887 0.00285339 0.000994682 0.000931263 0.00234985 0.00461578 0.00296211 0.0010891 0.00265694 0.00282097 0.0022316 0.000155687 0.00451279 0.00306129 0.00269127 0.00331688 0.000823498 0.00391388 0.000972271 0.00126648 0.0046196 0.00349045 0.00212669 0.00419998 0.00369835 0.00369072 0.000528812 0.00107479 0.00412369 0.00123215 0.00410461 0.00121689 0.00325203 0.00186825 0.000859737 0.00239563 0.00225067 0.00182533 0.00108719 0.00196075 0.00107002 0.0020504 0.00467682 0.000360966 0.00265884 0.00487518 0.00330353 0.00449753 0.00443268 0.00143051 0.00466156 0.00346565 0.00479507 0.0020256 0.000133991 0.00282669 0.000402927 0.00470734 0.00368118 0.0032692 0.00173283 0.000305653 0.00427246 0.00326157 0.00175667 0.00229073 0.00262833 0.00344086 1.80006e-05 0.00232124 0.00181007 0.00384521 0.00324059 0.00351524 0.0014143 0.00133896 0.00145149 0.00126076 0.00277138 0.0012188 0.00477219 0.00218773 0.00314903 0.000402689 0.00128078 0.00100708 0.00423813 0.00440216 0.00361443 0.00275803 0.00458908 0.000687599 0.003479 0.00285339 0.00168896 0.0037899 0.00417709 0.00459671 0.000535965 0.00247383 0.00431061 0.00297356 0.00473404 0.00483322 0.00391769 0.00447845 0.00230408 0.000124693 0.00441742 0.00288582 0.00262642 0.0032177 0.0012989 0.00489044 6.57439e-05 0.00100708 0.00146008 0.00080061 0.00242043 0.00322914 0.00206757 0.00305557 0.00292778 0.00424576 0.00261688 0.00405884 0.00259018 0.00473785 0.00071764 0.00027585 0.004673 0.00107479 0.00135517 0.00416183 0.00388527 0.00286102 0.00152016 0.00356102 0.00479889 0.00482559 0.00401688 0.0043335 0.00482559 0.00191689 0.00323868 0.00319672 0.00109005 0.00443268 0.00281715 0.00149155 0.00180817 0.000105977 0.00380898 0.00139713 0.00137138 0.000635147 0.000127196 0.0039444 0.00077343 0.00499725 0.000979424 0.000212193 0.00237656 0.00485229 0.000265121 0.00146866 0.0043869 0.00176239 0.00150394 0.00129986 0.00333405 0.00460052 0.00430679 0.000882626 0.00319099 0.000419855 0.00416946 0.00336647 0.00095129 0.00323677 0.0029335 0.00197601 0.00287819 0.000923157 0.000664234 0.000514507 0.00287628 0.00158119 0.00422668 0.000484228 0.00227928 0.00294876 0.00339699 0.00305367 0.00197411 0.00321388 0.00325584 0.00483704 0.00165939 3.85046e-05 0.00486755 0.00271797 0.000515461 9.18508e-05 0.00427628 0.00286293 0.00449753 0.00364494 0.00485229 0.00445938 0.0025444 0.00282669 0.00414276 0.000373363 0.00242043 0.00394821 0.00173759 0.00121403 0.00329781 0.00179863 0.00286293 0.00167084 0.0047226 0.000306845 0.00126076 0.00223351 0.000782013 0.00111103 0.00146103 0.00257683 0.00438309 0.00479507 0.00478363 0.00439453 0.00452423 0.00358963 0.000289679 0.00249863 0.00490952 0.00068903 0.00314522 0.0042572 0.000710964 9.56655e-05 0.00271988 0.00383759 0.00485611 0.00376511 0.00137043 0.000523567 0.00391388 0.00488663 0.00309372 0.00241661 0.00110722 0.00289917 0.00320816 0.00465012 0.00486755 0.00122547 0.00488663 0.000578403 0.00390244 0.00243187 0.00402832 0.00225639 0.000352383 0.00107098 0.00450134 0.0026722 0.00422287 0.00144672 0.00324059 0.00262833 0.00056076 0.00452805 0.00127983 0.0044899 0.00181198 0.00117493 0.00024581 0.00338745 0.00169563 0.00259209 0.00173378 0.00176525 0.00442505 0.00121307 0.000177145 0.000542164 0.00378418 0.000385284 0.0019207 0.00452042 0.00350189 0.00161934 0.00259209 0.00320816 0.00146675 0.00414658 0.00391769 0.00354767 0.00229073 0.000594616 0.00377083 0.00335884 0.000505924 0.00254822 0.00440979 0.00417709 0.00323296 0.00119305 0.000601768 0.00439072 0.000740528 0.000438452 0.00229263 0.00175953 0.00396729 0.00313377 0.00137615 0.000265837 0.000389338 0.00232315 0.00170135 0.00239182 0.00493622 0.000620365 0.00151157 0.0021019 0.00296593 0.00271416 0.00428009 0.000627995 0.00498581 0.0013361 0.000775337 0.00325584 0.000810623 0.000485182 0.00466156 0.000141263 0.00230408 0.00310898 0.00268173 0.000375748 0.00187302 0.00497055 0.000476837 0.00378418 0.000127554 0.00356102 0.0021286 0.00065279 0.000199199 0.00419998 0.000113189 0.00361633 0.00386238 0.0014801 0.000955105 0.00340271 0.000920773 0.00437927 0.00259781 0.00287056 0.00185871 0.000936985 0.000650883 0.00117397 0.00132465 0.00329971 0.000851154 0.00499725 0.00423431 0.00341797 0.000128865 0.000654697 0.00403214 0.00418854 0.00358582 0.00119591 0.00291252 0.00454712 0.00307846 0.00387192 0.0026226 0.00421143 0.0022316 0.00312233 0.00251961 0.00486755 0.00193977 0.000407219 0.00172901 0.000772476 0.000904083 0.00179005 0.00192738 0.000730991 0.0021553 0.000658035 0.00209427 0.00230217 0.00185776 0.000780582 0.002285 0.00471115 0.00382423 0.000540733 0.000810146 0.00358963 0.00255013 0.000931263 0.00163937 0.00375557 0.00338745 0.00479507 0.0042038 0.00314903 0.00221062 0.00498199 0.000394344 0.00368118 0.00150204 0.00102234 0.00168324 0.00329781 0.00258255 0.00155544 0.00346184 0.0032711 0.0013361 0.00132275 0.00338554 0.0036068 4.673e-05 0.00476456 0.00306511 0.00373459 0.00420761 8.7142e-05 0.000490665 0.00178051 0.000240564 0.002985 0.00339317 0.00247765 0.00457764 0.00123119 0.001194 0.00316811 0.00122261 0.00465393 0.00138283 0.000627518 0.00126839 0.0034256 0.00468826 0.0022049 0.000190496 9.47714e-05 0.00123119 0.00229263 0.00437164 0.00216866 0.00162411 0.00134468 0.00267601 0.00428009 0.0029583 0.00183773 0.00269318 0.00360107 9.98974e-05 0.0037899 0.00275612 0.00250435 0.00341797 0.00158882 0.00168324 0.00362396 0.00232887 0.000137925 0.00451279 0.00432587 0.000657082 0.00449371 0.00262451 0.000361443 0.00336075 0.00309753 0.000820637 0.000264406 0.00187016 0.00327492 0.00274086 0.00285339 0.00276375 0.00387955 0.00410461 0.00203896 0.00307083 0.00402832 0.00375748 0.00197983 0.00203705 0.00166798 0.00369453 0.00229454 0.00275993 0.0001477 4.25577e-05 0.00159931 0.00346565 0.00265121 0.00340271 0.00213623 0.00383949 0.00206757 0.00289917 0.00494385 0.00358009 0.00232315 0.00322723 0.0028038 0.000354052 0.00382042 0.000977516 0.00380516 0.000618458 0.00163555 0.00416946 0.00269318 0.000192404 0.000420809 0.00251007 0.00152397 0.00435257 0.00470734 0.00424576 0.0023632 0.000318527 0.00152397 0.00130939 0.00398636 0.00383759 0.00280952 0.000688076 0.00261497 0.00278854 0.00164795 0.000168681 0.00364685 0.00133228 0.00152588 0.00278854 0.00336266 0.00359344 0.00353813 0.00188732 7.70688e-05 0.00168133 0.00453949 0.00218964 0.00307274 0.00178337 0.00354958 0.00351906 8.83937e-05 0.00243568 0.00274849 0.00100327 0.00417709 0.00226021 0.00128937 0.00297928 0.000259161 0.00381279 0.000321865 0.00337601 0.00157833 0.00183201 0.0025959 0.00418854 0.00054121 0.00499344 0.00485992 0.00317574 0.00177193 0.00252151 0.000359535 0.00450516 0.00382614 0.00182343 0.00378036 0.00337219 0.0011549 0.00220299 0.00433731 0.0048027 0.00159454 0.00416946 0.00309372 0.00125313 0.00291443 0.00417709 0.00123215 0.00131321 0.000640392 0.00395203 0.00223541 0.00463486 0.00339699 0.0024662 0.000682831 0.00233078 0.00331688 0.00364113 0.00274277 0.00145912 0.00401306 0.00226784 0.00478363 0.00111675 0.00296783 0.00480652 0.00250053 0.000573635 0.00109768 0.000155926 0.00461197 0.00092268 0.00415039 0.00492859 0.00289536 0.00499344 0.000721455 0.00278282 0.00295639 0.000549316 0.00200462 0.0038166 0.00127983 0.00396729 0.00369453 0.00266266 0.00485229 0.00377274 0.00399399 0.00293541 0.00237083 0.000255346 0.00137901 0.00262451 0.00297928 0.00183201 0.00429916 0.000163436 0.0031414 0.00302315 0.000416756 0.00141239 0.00225639 0.00210762 0.000876904 0.00201035 0.00409698 0.0041008 0.0044632 0.00384712 0.000191212 0.0022316 0.000775337 0.00382996 0.000326157 0.00117874 0.00164509 0.00452805 0.00372505 0.000127554 1.83582e-05 0.0018816 0.00416946 0.00224876 0.0042305 0.000551701 0.000239611 0.00448227 0.00105858 0.00342751 0.00397873 0.00423813 0.0020504 0.00489426 0.00303268 0.00294495 0.00222969 0.00218391 0.000721931 0.00033617 0.00453186 0.000201344 0.000148416 0.000541687 0.00289726 0.00148296 0.00409317 0.00147629 0.000193 0.000635147 0.00172901 0.00208282 0.00180721 0.00331116 0.00372887 0.00232124 0.00476837 0.00390625 0.00413513 0.00263214 0.0032177 0.0009408 1.19209e-07 0.000744343 0.00474167 0.00342751 0.00042057 0.0036068 0.00305176 0.000694752 0.0021801 0.00335693 0.00251198 0.00231934 0.0042572 0.0046463 0.000642776 0.000519753 0.00186062 9.66787e-05 0.00474548 0.00268555 0.00293541 0.00231361 0.00183296 0.00337982 0.00356102 0.00128174 0.0045166 0.00184155 0.00185299 0.00035882 0.00209236 0.00255203 0.0043335 0.00167656 0.0047493 0.000705719 0.0013504 0.00234985 0.00140667 0.00253296 0.00463486 0.0020504 0.0026226 0.00426102 0.00439835 0.00471115 0.00359917 0.00448227 0.00452423 0.00352478 0.00324249 0.00317764 0.00338364 0.00112724 0.00274467 0.00385857 0.00165462 0.000464201 0.000516415 0.000229716 0.000682354 0.00321579 0.0029335 0.00370598 0.00372314 0.00399399 0.00283813 0.0047226 0.00424576 0.00487518 0.0045433 0.00443268 0.00468445 0.00477982 0.0019474 0.00286293 0.00238037 0.0019455 0.00237656 0.00439453 0.00458527 0.00229073 0.00192356 0.00427246 0.00423431 0.00161457 0.00217056 0.000495434 0.00356674 0.000207067 0.000267267 0.00421143 0.00182056 0.00445557 0.00400925 0.00179482 0.00113392 0.000769138 0.00495911 0.0045433 0.00335312 0.00268173 0.00267029 2.90275e-05 0.000876427 0.000425577 0.00312424 0.00117302 0.00477219 0.0030899 6.38962e-05 0.00292778 0.00149155 0.00300217 0.0016346 0.00197601 0.00288582 0.00114727 0.00210953 0.00225639 0.00323105 0.00243378 0.00221062 0.00117493 0.00199509 0.00220108 0.000434637 0.00398636 9.94205e-05 0.000528336 0.00206947 0.00370789 0.0042038 0.00348473 0.00274849 0.00261116 0.00370216 0.00281143 0.00270844 0.00186157 0.00215149 0.00135994 0.00263977 5.65052e-05 0.00148106 0.0028038 0.00474167 0.00112534 0.00069952 0.000881672 0.00495148 0.00158405 0.00278091 0.00429153 0.00482559 0.0042305 0.00209236 0.00336075 0.0015173 0.000671864 0.0045929 0.00175858 4.91738e-05 0.00183582 0.0037384 0.000967503 0.000617981 0.000710487 0.00197983 0.000409365 0.00420761 0.000962734 0.00118732 0.00076437 0.00113678 0.00382805 0.00155258 0.00174904 0.000692844 0.000686646 0.00405502 0.00252724 0.00436401 0.00426483 0.00327873 0.00156021 0.00282478 0.00148869 0.00291443 0.0039978 0.00146484 0.00168896 0.0007267 0.000950813 0.00419235 0.0011158 0.00375748 0.00102997 0.00348282 0.00356674 0.00162125 0.00244904 0.00489044 0.00158596 0.00425339 0.00396347 0.000553131 0.00180435 0.000293493 0.000723839 0.00110531 0.00416946 0.00328827 0.00324059 0.00432968 0.000631332 0.00414276 0.00332069 0.004879 0.00305748 0.00283623 0.00351334 0.00277138 0.000516891 0.00282097 0.00360107 0.00112152 0.00481033 0.00161552 0.00219727 0.00487518 0.00393295 0.000650406 0.00203896 0.00461578 0.000902653 0.0045166 0.00289154 0.00374985 0.00337219 0.0011673 0.000683784 0.0012331 0.00214577 0.0029583 0.00109005 0.00167561 0.0029583 0.002882 0.00158787 0.00240326 0.00395203 0.00446701 0.000403881 0.00268555 0.00484848 0.00166416 0.00452805 0.00031805 0.00357628 0.00360298 0.00210762 0.00325584 0.00421906 0.00323486 0.00482178 0.000382662 0.00424957 0.000655174 0.00494766 0.00443268 0.00259781 0.0047493 0.00233078 0.00270844 0.00196266 0.00135136 0.00391388 0.00455093 0.00299644 0.0039978 0.00471878 0.00260544 0.00432968 0.000799656 0.00233459 0.00423813 0.00244331 0.00469208 0.000885487 0.000271559 0.00190544 0.00295448 0.00320435 0.0029583 0.00447083 0.00213623 0.000153422 0.00162792 0.000716686 0.00196457 0.00200272 0.0026226 0.00471497 0.00355148 0.00178814 0.00189018 0.00286674 0.00466537 0.00108147 0.0033989 0.00380325 0.00162888 0.00260925 0.0042572 0.0043602 0.00410843 0.00227547 0.00191879 0.00479507 0.00366211 0.00263786 0.00260925 0.00148106 0.00429535 0.00273323 0.000548363 0.000223279 0.00251961 0.00201797 0.00369644 0.00134468 0.00265312 0.00416183 0.00321579 0.00245857 0.0021534 0.00356674 0.00299072 0.00174522 0.00024581 0.00313377 0.00208282 0.00118065 0.0043869 0.0018549 0.000403166 0.00289345 0.00206184 0.00165367 0.00297546 0.00144863 0.00252914 0.00176334 0.00154877 0.00131226 0.00361633 0.000953674 0.00255203 0.00113201 0.00145817 0.0027504 0.00312614 7.61151e-05 0.00100327 0.00224495 0.00431442 0.00286484 0.00144005 0.00180054 0.000297308 0.00467682 0.0014534 0.00477982 0.00363159 3.28422e-05 0.00422668 0.000146747 0.00350571 0.00410843 0.00148106 0.00252342 0.0049057 0.00196266 0.00494003 0.00408936 0.00226593 0.00454712 0.00304794 0.00378036 0.00032115 0.00494766 0.00109673 0.00100994 0.00244141 0.000288963 0.00133991 0.00435638 0.00461578 0.00261879 0.00440598 0.00148964 0.00110054 0.000438213 0.00253105 0.000893593 0.000662804 0.00129509 0.00144291 0.00439453 0.00325775 0.000347614 0.00079155 0.00304985 0.00216293 0.00236702 0.00239944 0.000490665 0.00206947 0.00470352 0.00295258 0.0018549 0.000519753 0.000524998 0.00432205 0.00198936 0.00220871 0.000947475 0.00477982 0.000281572 0.000259876 0.00105476 0.00162888 0.00270081 0.00466156 0.00253105 0.00019145 0.00362778 0.00232315 0.00105572 0.000403881 0.00343323 0.00308418 0.000255346 0.00368881 0.00107384 0.00429916 0.00315285 0.00128651 9.7096e-05 0.00405884 0.000716209 0.000926971 0.00123787 0.00294685 0.000650883 0.000878334 0.00117779 0.00296783 0.000250101 0.0014925 0.00104809 0.000783443 0.00134754 0.00164509 0.00270653 0.000397682 0.00445175 4.55379e-05 0.000772953 0.00479126 0.00344086 0.00202751 0.0033474 0.00114346 0.00419998 0.000778675 0.00418091 0.00411987 0.00390244 0.00287819 0.000193357 0.00339317 0.0045433 0.00211906 0.000134826 0.00113106 0.00171375 0.00303078 0.00310516 0.00388718 0.00150108 0.00179482 0.00470352 0.00330353 0.00281525 0.00415421 0.0032711 0.00451279 0.00361633 0.00251198 0.00172806 0.000778675 0.00331497 0.00148201 0.00111294 0.00492096 0.00122929 0.00459671 0.000439167 0.00308418 0.000973701 0.00298119 0.00288582 0.00164223 0.000508785 0.00393677 0.00482178 0.00485229 0.000695705 0.00456238 0.00440216 0.0010252 0.00329399 0.00372696 4.30346e-05 0.000971794 0.00233841 0.00333214 0.00350571 0.00290871 0.00219727 0.00452423 0.0026207 0.00443268 0.00322533 0.000647545 0.00490952 0.0023613 0.00429535 0.00342751 0.00367546 0.00382233 0.00295448 0.00156593 0.000437021 0.00136662 0.00385475 0.000884056 0.00434494 0.00143814 0.000289679 0.0011158 0.00163174 0.00372124 2.49147e-05 0.00251961 0.00408936 0.00354004 0.00465012 0.00427246 0.00186253 0.00469208 0.00240517 0.00463867 0.0033989 0.0046196 0.00385284 0.00447845 0.00106621 0.000621796 0.00211906 0.00112152 0.00357056 2.74181e-06 0.00088501 0.00195217 0.00298119 0.00233459 0.00100613 0.00264549 0.00313377 0.000142932 0.00419617 0.00408173 0.00140762 0.00273895 6.27637e-05 0.000811577 0.00318718 0.00317574 0.000289202 0.00388527 0.00307846 0.00178146 0.00298309 0.00441742 0.00231361 0.000500202 0.00195312 0.00338554 0.00226974 0.0043602 0.00250816 0.000595093 0.00441742 0.000994682 0.00358391 0.00133991 0.00366592 0.00345039 0.00250244 0.00258255 0.00434113 0.00434875 0.00285721 0.00407028 0.00255394 0.00483704 0.000973225 0.000217319 0.00183678 0.00292778 0.00443649 0.00356674 0.00268936 0.000309944 0.00218773 0.000866413 0.000388861 0.00133228 0.000233054 0.00319481 0.00320053 0.00499725 0.00192833 0.0034771 0.00094223 0.00184536 0.00490189 0.00163364 0.00195026 0.00262451 0.00462341 0.00256538 0.00340843 0.000845432 0.00401688 0.000139236 0.0017662 0.00278664 0.000230908 0.00328064 0.00197601 0.00440216 0.00413895 0.000261784 0.00099659 0.00319481 0.00125027 0.00124741 0.00304794 0.000161648 0.00269699 0.00320435 0.00187588 0.00184155 0.0014267 0.00140285 0.00107002 0.000188589 0.00337219 0.000214815 3.96371e-05 0.000348568 0.000762463 0.00153732 0.00438309 0.00180531 0.00472641 0.00269318 0.00098896 0.00426865 0.00281525 0.000441074 0.00221062 0.00374413 0.00183105 0.00301933 0.0040741 0.00100899 0.00247955 0.000584126 0.000504971 0.00149441 0.00229073 0.00233269 0.000213861 0.00429153 0.00206566 0.00463867 0.00123501 0.00396347 0.00280762 0.00472641 0.00496292 0.00113678 0.000876904 0.000773907 0.00275993 0.00370407 0.000463963 0.0037632 0.000390291 0.000615597 0.00242615 0.0038147 0.00256348 0.00115681 0.00200272 0.00411224 0.00382423 0.000758171 0.00175667 0.0023098 0.00418854 0.000254869 0.00122833 0.00249481 0.00311279 0.000372171 0.00430679 0.00352287 0.00342178 0.00489426 0.00163841 0.000179172 0.0016613 0.00466156 0.00342178 0.000169516 0.000496864 0.00341988 0.00266647 0.00307083 0.00322723 0.0043602 0.00280952 0.000745296 0.00113201 0.00220108 0.000480175 0.000384808 0.0033741 0.00270653 0.00204849 0.0024395 0.00324631 0.00291061 0.00218582 0.000710964 0.00390625 0.00317574 0.0041275 0.00402451 0.00437164 9.32813e-05 0.00153255 4.06504e-05 0.00114155 0.00209427 0.000788689 0.00280571 0.00370026 0.00349998 0.00115299 0.00120163 0.000543594 0.00421524 0.00265503 0.00187302 0.00325203 0.00185394 0.00297928 0.00106716 0.00110722 0.000176072 0.00443649 0.00296783 0.00468445 0.00182819 0.00445175 0.00132465 0.00468445 0.00465775 0.00113106 0.00443649 0.000183582 0.00470734 0.000639439 0.00145531 0.00
[...]
511967774501: system.acc0_datapath: Receiving DMA response for node 20019, address 0x17aa560 with label b and size 32.
511967779501: system.acc0_datapath: Receiving DMA response for node 20019, address 0x17aa580 with label b and size 32.
511967784501: system.acc0_datapath: Receiving DMA response for node 20019, address 0x17aa5a0 with label b and size 32.
511967789501: system.acc0_datapath: Receiving DMA response for node 20019, address 0x17aa5c0 with label b and size 32.
511967794501: system.acc0_datapath: Receiving DMA response for node 20019, address 0x17aa5e0 with label b and size 32.
511967799501: system.acc0_datapath: Receiving DMA response for node 20019, address 0x17aa600 with label b and size 32.
511967843001: system.acc0_datapath: Receiving DMA response for node 20019, address 0x17aa620 with label b and size 32.
511967848001: system.acc0_datapath: Receiving DMA response for node 20019, address 0x17aa640 with label b and size 32.
511967853001: system.acc0_datapath: Receiving DMA response for node 20019, address 0x17aa660 with label b and size 32.
511967858001: system.acc0_datapath: Receiving DMA response for node 20019, address 0x17aa680 with label b and size 32.
511967863001: system.acc0_datapath: Receiving DMA response for node 20019, address 0x17aa6a0 with label b and size 32.
511967868001: system.acc0_datapath: Receiving DMA response for node 20019, address 0x17aa6c0 with label b and size 32.
511967873001: system.acc0_datapath: Receiving DMA response for node 20019, address 0x17aa6e0 with label b and size 32.
511967878001: system.acc0_datapath: Receiving DMA response for node 20019, address 0x17aa700 with label b and size 32.
511967883001: system.acc0_datapath: Receiving DMA response for node 20019, address 0x17aa720 with label b and size 32.
511967888001: system.acc0_datapath: Receiving DMA response for node 20019, address 0x17aa740 with label b and size 32.
511967893001: system.acc0_datapath: Receiving DMA response for node 20019, address 0x17aa760 with label b and size 32.
511967898001: system.acc0_datapath: Receiving DMA response for node 20019, address 0x17aa780 with label b and size 32.
511967903001: system.acc0_datapath: Receiving DMA response for node 20019, address 0x17aa7a0 with label b and size 32.
511967908001: system.acc0_datapath: Receiving DMA response for node 20019, address 0x17aa7c0 with label b and size 32.
511967913001: system.acc0_datapath: Receiving DMA response for node 20019, address 0x17aa7e0 with label b and size 32.
511967918001: system.acc0_datapath: Receiving DMA response for node 20019, address 0x17aa800 with label b and size 32.
511967961501: system.acc0_datapath: Receiving DMA response for node 20019, address 0x17aa820 with label b and size 32.
511967966501: system.acc0_datapath: Receiving DMA response for node 20019, address 0x17aa840 with label b and size 32.
511967971501: system.acc0_datapath: Receiving DMA response for node 20019, address 0x17aa860 with label b and size 32.
511967976501: system.acc0_datapath: Receiving DMA response for node 20019, address 0x17aa880 with label b and size 32.
511967981501: system.acc0_datapath: Receiving DMA response for node 20019, address 0x17aa8a0 with label b and size 32.
511967986501: system.acc0_datapath: Receiving DMA response for node 20019, address 0x17aa8c0 with label b and size 32.
511967991501: system.acc0_datapath: Receiving DMA response for node 20019, address 0x17aa8e0 with label b and size 32.
511967996501: system.acc0_datapath: Receiving DMA response for node 20019, address 0x17aa900 with label b and size 32.
511968001501: system.acc0_datapath: Receiving DMA response for node 20019, address 0x17aa920 with label b and size 32.
511968006501: system.acc0_datapath: Receiving DMA response for node 20019, address 0x17aa940 with label b and size 32.
511968011501: system.acc0_datapath: Receiving DMA response for node 20019, address 0x17aa960 with label b and size 32.
511968016501: system.acc0_datapath: Receiving DMA response for node 20019, address 0x17aa980 with label b and size 32.
511968021501: system.acc0_datapath: Receiving DMA response for node 20019, address 0x17aa9a0 with label b and size 32.
511968026501: system.acc0_datapath: Receiving DMA response for node 20019, address 0x17aa9c0 with label b and size 32.
511968031501: system.acc0_datapath: Receiving DMA response for node 20019, address 0x17aa9e0 with label b and size 32.
511968036501: system.acc0_datapath: Receiving DMA response for node 20019, address 0x17aaa00 with label b and size 32.
511968080001: system.acc0_datapath: Receiving DMA response for node 20019, address 0x17aaa20 with label b and size 32.
511968085001: system.acc0_datapath: Receiving DMA response for node 20019, address 0x17aaa40 with label b and size 32.
511968090001: system.acc0_datapath: Receiving DMA response for node 20019, address 0x17aaa60 with label b and size 32.
511968090001: system.acc0_datapath: dmaCompleteCallback for node 20019.
===============================
        Aladdin Results        
=== trace file name./dynamic_trace_acc0.gz
===============================
Running : ./outputs/nnet_fwd
Top level function: smv_matrix_multiply_transpose_nc_vec_fxp
Cycle : 25600 cycles
Upsampled Cycle : 0 cycles
Avg Power: 52.1769 mW
Idle FU Cycles: 20427 cycles
Avg FU Power: 4.81369 mW
Avg FU Dynamic Power: 2.00544 mW
Avg FU leakage Power: 2.80825 mW
Avg MEM Power: 47.3632 mW
Avg MEM Dynamic Power: 28.4522 mW
Avg MEM Leakage Power: 18.911 mW
Total Area: 1.38124e+06 uM^2
FU Area: 241350 uM^2
MEM Area: 1.13989e+06 uM^2
Num of Multipliers (32-bit): 6
Num of Adders (32-bit): 128
Num of Bit-wise Operators (32-bit): 33
Num of Shifters (32-bit): 14
Num of Registers (32-bit): 56
===============================
        Aladdin Results        
===============================
511970548000: system.acc0_datapath: Accelerator completed.
511970548000: system.acc0_datapath: Elapsed host seconds 3.73.
511970548000: system.acc0_datapath: Sent finished signal.
511970560001: system.acc0_datapath: cacheRespCallback for control signal access: 0x1a7c830
511970562000: system.acc0_datapath: Woken up the CPU thread context.
511970562000: system.acc0_datapath: Inserting array label mapping host_a -> vpn 0x3c36e0, size 12544.
511970562000: system.acc0_datapath: Mapping vaddr 0x3c36e0 -> paddr 0x1ad36e0.
511970562000: system.acc0_datapath: Inserting TLB entry vpn 0x3c3000 -> ppn 0x1ad3000.
511970562000: system.acc0_datapath: Mapping vaddr 0x3c46e0 -> paddr 0x1ad46e0.
511970562000: system.acc0_datapath: Inserting TLB entry vpn 0x3c4000 -> ppn 0x1ad4000.
511970562000: system.acc0_datapath: Mapping vaddr 0x3c56e0 -> paddr 0x1ad56e0.
511970562000: system.acc0_datapath: Inserting TLB entry vpn 0x3c5000 -> ppn 0x1ad5000.
511970562000: system.acc0_datapath: Mapping vaddr 0x3c66e0 -> paddr 0x1ad66e0.
511970562000: system.acc0_datapath: Inserting TLB entry vpn 0x3c6000 -> ppn 0x1ad6000.
511970562000: system.acc0_datapath: Inserting array label mapping host_b -> vpn 0x3afe20, size 2048.
511970562000: system.acc0_datapath: Mapping vaddr 0x3afe20 -> paddr 0x1abfe20.
511970562000: system.acc0_datapath: Inserting TLB entry vpn 0x3af000 -> ppn 0x1abf000.
511970562000: system.acc0_datapath: Mapping vaddr 0x3b0e20 -> paddr 0x1ac0e20.
511970562000: system.acc0_datapath: Inserting TLB entry vpn 0x3b0000 -> ppn 0x1ac0000.
511970562000: system.acc0_datapath: Activating accelerator id 3
-------------------------------
      Generating DDDG          
-------------------------------
-------------------------------
Num of Nodes: 8770
Num of Edges: 21460
Num of Reg Edges: 11566
Num of MEM Edges: 1129
Num of Control Edges: 8769
-------------------------------
-------------------------------
    Initializing BaseDatapath      
-------------------------------
 Top level: smv_matrix_multiply_transpose_nc_vec_fxp
=============================================
      Optimizing...            ./outputs/nnet_fwd
=============================================
-------------------------------
  Remove PHI and Convert Nodes 
-------------------------------
  Removing 7136 edges.
  Adding 4808 new edges.
  Removing 80 isolated nodes.
-------------------------------
  Remove Induction Dependence  
-------------------------------
-------------------------------
       Init Base Address       
-------------------------------
-------------------------------
     Init DMA Base Address     
-------------------------------
-------------------------------
      ScratchPad Partition     
-------------------------------
-------------------------------
         Loop Flatten          
-------------------------------
  Removing 892 isolated nodes.
  Removing 0 isolated nodes.
-------------------------------
         Loop Unrolling        
-------------------------------
  Adding 14220 new edges.
  Removing 112 isolated nodes.
  Removing 0 isolated nodes.
-------------------------------
          Load Buffer          
-------------------------------
  Adding 112 new edges.
  Removing 672 edges.
  Removing 0 isolated nodes.
-------------------------------
          Store Buffer         
-------------------------------
  Adding 1024 new edges.
  Removing 304 isolated nodes.
  Removing 0 isolated nodes.
-------------------------------
    Remove Repeated Stores     
-------------------------------
-------------------------------
      Memory Ambiguation       
-------------------------------
  Adding 0 new edges.
-------------------------------
     Tree Height Reduction     
-------------------------------
  Removing 640 edges.
  Adding 640 new edges.
  Removing 0 isolated nodes.
-------------------------------
  Fuse register loads/stores   
-------------------------------
  Removing 681 edges.
  Adding 681 new edges.
  Removing 0 isolated nodes.
-------------------------------
   Fuse consecutive branches   
-------------------------------
  Removing 893 edges.
  Adding 893 new edges.
  Removing 0 isolated nodes.
-------------------------------
      Per Loop Pipelining      
-------------------------------
  Adding 5097 new edges.
  Removing 5175 edges.
  Removing 0 isolated nodes.
-------------------------------
         Loop Pipelining        
-------------------------------
=============================================
      Scheduling...            ./outputs/nnet_fwd
=============================================
  Total connected nodes: 6677
  Total edges: 27748
=============================================
511970571000: system.acc0_datapath: Scheduling DMA load operation with node id 69 with delay 768000
511971339000: system.acc0_datapath: Adding DMA node 69 to DMA issue queue.
511971339000: system.acc0_datapath: issueDmaRequest: src_addr: 0x177be40, dst_addr: 0x179ba80, size: 2048
511971339000: system.acc0_datapath: DMA Accesses: array label b
511971339000: system.acc0_datapath: Increment the dmaLoad accesses of partition b with size 2048. 
511971410501: system.acc0_datapath: Receiving DMA response for node 69, address 0x179ba80 with label b and size 32.
511971415501: system.acc0_datapath: Receiving DMA response for node 69, address 0x179baa0 with label b and size 32.
511971420501: system.acc0_datapath: Receiving DMA response for node 69, address 0x179bac0 with label b and size 32.
511971425501: system.acc0_datapath: Receiving DMA response for node 69, address 0x179bae0 with label b and size 32.
511971430501: system.acc0_datapath: Receiving DMA response for node 69, address 0x179bb00 with label b and size 32.
511971435501: system.acc0_datapath: Receiving DMA response for node 69, address 0x179bb20 with label b and size 32.
511971440501: system.acc0_datapath: Receiving DMA response for node 69, address 0x179bb40 with label b and size 32.
511971445501: system.acc0_datapath: Receiving DMA response for node 69, address 0x179bb60 with label b and size 32.
511971450501: system.acc0_datapath: Receiving DMA response for node 69, address 0x179bb80 with label b and size 32.
511971455501: system.acc0_datapath: Receiving DMA response for node 69, address 0x179bba0 with label b and size 32.
511971460501: system.acc0_datapath: Receiving DMA response for node 69, address 0x179bbc0 with label b and size 32.
511971465501: system.acc0_datapath: Receiving DMA response for node 69, address 0x179bbe0 with label b and size 32.
511971470501: system.acc0_datapath: Receiving DMA response for node 69, address 0x179bc00 with label b and size 32.
511971475501: system.acc0_datapath: Receiving DMA response for node 69, address 0x179bc20 with label b and size 32.
511971480501: system.acc0_datapath: Receiving DMA response for node 69, address 0x179bc40 with label b and size 32.
511971487001: system.acc0_datapath: Receiving DMA response for node 69, address 0x179bc60 with label b and size 32.
511971492001: system.acc0_datapath: Receiving DMA response for node 69, address 0x179bc80 with label b and size 32.
511971497001: system.acc0_datapath: Receiving DMA response for node 69, address 0x179bca0 with label b and size 32.
511971502001: system.acc0_datapath: Receiving DMA response for node 69, address 0x179bcc0 with label b and size 32.
511971507001: system.acc0_datapath: Receiving DMA response for node 69, address 0x179bce0 with label b and size 32.
511971512001: system.acc0_datapath: Receiving DMA response for node 69, address 0x179bd00 with label b and size 32.
511971517001: system.acc0_datapath: Receiving DMA response for node 69, address 0x179bd20 with label b and size 32.
511971522001: system.acc0_datapath: Receiving DMA response for node 69, address 0x179bd40 with label b and size 32.
511971527001: system.acc0_datapath: Receiving DMA response for node 69, address 0x179bd60 with label b and size 32.
511971532001: system.acc0_datapath: Receiving DMA response for node 69, address 0x179bd80 with label b and size 32.
511971537001: system.acc0_datapath: Receiving DMA response for node 69, address 0x179bda0 with label b and size 32.
511971542001: system.acc0_datapath: Receiving DMA response for node 69, address 0x179bdc0 with label b and size 32.
511971547001: system.acc0_datapath: Receiving DMA response for node 69, address 0x179bde0 with label b and size 32.
511971552001: system.acc0_datapath: Receiving DMA response for node 69, address 0x179be00 with label b and size 32.
511971557001: system.acc0_datapath: Receiving DMA response for node 69, address 0x179be20 with label b and size 32.
511971562001: system.acc0_datapath: Receiving DMA response for node 69, address 0x179be40 with label b and size 32.
511971605501: system.acc0_datapath: Receiving DMA response for node 69, address 0x179be60 with label b and size 32.
511971610501: system.acc0_datapath: Receiving DMA response for node 69, address 0x179be80 with label b and size 32.
511971615501: system.acc0_datapath: Receiving DMA response for node 69, address 0x179bea0 with label b and size 32.
511971620501: system.acc0_datapath: Receiving DMA response for node 69, address 0x179bec0 with label b and size 32.
511971625501: system.acc0_datapath: Receiving DMA response for node 69, address 0x179bee0 with label b and size 32.
511971630501: system.acc0_datapath: Receiving DMA response for node 69, address 0x179bf00 with label b and size 32.
511971635501: system.acc0_datapath: Receiving DMA response for node 69, address 0x179bf20 with label b and size 32.
511971640501: system.acc0_datapath: Receiving DMA response for node 69, address 0x179bf40 with label b and size 32.
511971645501: system.acc0_datapath: Receiving DMA response for node 69, address 0x179bf60 with label b and size 32.
511971650501: system.acc0_datapath: Receiving DMA response for node 69, address 0x179bf80 with label b and size 32.
511971655501: system.acc0_datapath: Receiving DMA response for node 69, address 0x179bfa0 with label b and size 32.
511971660501: system.acc0_datapath: Receiving DMA response for node 69, address 0x179bfc0 with label b and size 32.
511971665501: system.acc0_datapath: Receiving DMA response for node 69, address 0x179bfe0 with label b and size 32.
511971670501: system.acc0_datapath: Receiving DMA response for node 69, address 0x179c000 with label b and size 32.
511971675501: system.acc0_datapath: Receiving DMA response for node 69, address 0x179c020 with label b and size 32.
511971680501: system.acc0_datapath: Receiving DMA response for node 69, address 0x179c040 with label b and size 32.
511971724001: system.acc0_datapath: Receiving DMA response for node 69, address 0x179c060 with label b and size 32.
511971729001: system.acc0_datapath: Receiving DMA response for node 69, address 0x179c080 with label b and size 32.
511971734001: system.acc0_datapath: Receiving DMA response for node 69, address 0x179c0a0 with label b and size 32.
511971739001: system.acc0_datapath: Receiving DMA response for node 69, address 0x179c0c0 with label b and size 32.
511971744001: system.acc0_datapath: Receiving DMA response for node 69, address 0x179c0e0 with label b and size 32.
511971749001: system.acc0_datapath: Receiving DMA response for node 69, address 0x179c100 with label b and size 32.
511971754001: system.acc0_datapath: Receiving DMA response for node 69, address 0x179c120 with label b and size 32.
511971759001: system.acc0_datapath: Receiving DMA response for node 69, address 0x179c140 with label b and size 32.
511971764001: system.acc0_datapath: Receiving DMA response for node 69, address 0x179c160 with label b and size 32.
511971769001: system.acc0_datapath: Receiving DMA response for node 69, address 0x179c180 with label b and size 32.
511971774001: system.acc0_datapath: Receiving DMA response for node 69, address 0x179c1a0 with label b and size 32.
511971779001: system.acc0_datapath: Receiving DMA response for node 69, address 0x179c1c0 with label b and size 32.
511971784001: system.acc0_datapath: Receiving DMA response for node 69, address 0x179c1e0 with label b and size 32.
511971789001: system.acc0_datapath: Receiving DMA response for node 69, address 0x179c200 with label b and size 32.
511971794001: system.acc0_datapath: Receiving DMA response for node 69, address 0x179c220 with label b and size 32.
511971799001: system.acc0_datapath: Receiving DMA response for node 69, address 0x179c240 with label b and size 32.
511971842501: system.acc0_datapath: Receiving DMA response for node 69, address 0x179c260 with label b and size 32.
511971842501: system.acc0_datapath: dmaCompleteCallback for node 69.
===============================
        Aladdin Results        
=== trace file name./dynamic_trace_acc0.gz
===============================
Running : ./outputs/nnet_fwd
Top level function: smv_matrix_multiply_transpose_nc_vec_fxp
Cycle : 1626 cycles
Upsampled Cycle : 0 cycles
Avg Power: 473.832 mW
Idle FU Cycles: 1282 cycles
Avg FU Power: 4.85339 mW
Avg FU Dynamic Power: 2.05934 mW
Avg FU leakage Power: 2.79405 mW
Avg MEM Power: 468.979 mW
Avg MEM Dynamic Power: 450.068 mW
Avg MEM Leakage Power: 18.911 mW
Total Area: 1.38009e+06 uM^2
FU Area: 240202 uM^2
MEM Area: 1.13989e+06 uM^2
Num of Multipliers (32-bit): 6
Num of Adders (32-bit): 128
Num of Bit-wise Operators (32-bit): 33
Num of Shifters (32-bit): 14
Num of Registers (32-bit): 50
===============================
        Aladdin Results        
===============================
511972187000: system.acc0_datapath: Accelerator completed.
511972187000: system.acc0_datapath: Elapsed host seconds 0.24.
511972187000: system.acc0_datapath: Sent finished signal.
511972199001: system.acc0_datapath: cacheRespCallback for control signal access: 0x1a7c850
511972201000: system.acc0_datapath: Woken up the CPU thread context.
Accelerator 0 finished.
Switched to accelerator 0.
Waiting for all accelerators to finish.
Accelerator 1 finished.
All accelerators finished.
mat_mul/output0, shape = (1, 10)
( 0 0 )
[ 0.00106335 0.0010643 0.00106335 0.00106335 0.00106239 0.00105381 0.00107193 0.00106812 0.0010767 0.0010643  ]

Exiting @ tick 512186598000 because exiting with last active thread context
