gem5 Simulator System.  http://gem5.org
gem5 is copyrighted software; use the --copyright option for details.

gem5 compiled Dec 15 2022 15:56:59
gem5 started Jan  6 2023 17:02:06
gem5 executing on 09fa19b76669, pid 1445
command line: /workspace/gem5-aladdin/build/X86/gem5.opt --debug-flags=Aladdin,HybridDatapath --outdir=outputs /workspace/gem5-aladdin/configs/aladdin/aladdin_se.py --num-cpus=1 --mem-size=4GB --mem-type=LPDDR4_3200_2x16 --cpu-clock=2.5GHz --cpu-type=DerivO3CPU --ruby --access-backing-store --l2_size=2097152 --l2_assoc=16 --cacheline_size=32 --accel_cfg_file=gem5.cfg --fast-forward=10000000000 -c /workspace/smaug/build/bin/smaug -o 'my_model_topo.pbtxt my_model_params.pb --gem5 --debug-level=2 --num-accels=2'

Global frequency set at 1000000000000 ticks per second
-------------------------------
      Setting ScratchPad       
-------------------------------
      0: system: Registered accelerator 3
-------------------------------
      Setting ScratchPad       
-------------------------------
      0: system: Registered accelerator 4
      0: system.acc0_datapath: Registering stats.
      0: system.acc1_datapath: Registering stats.
Switch at instruction count:10000000000
Switched CPUS @ tick 3689664000
switching cpus
**** REAL SIMULATION ****
Exiting @ tick 3986733000 because user interrupt received
