
---------- Begin Simulation Statistics ----------
# Stats desc: Network start
final_tick                                23431741000                       # Number of ticks from beginning of simulation (restored from checkpoints and never reset)
host_inst_rate                              182973702                       # Simulator instruction rate (inst/s)
host_mem_usage                                9878132                       # Number of bytes of host memory used
host_op_rate                                330253385                       # Simulator op (including micro ops) rate (op/s)
host_seconds                                     0.06                       # Real time elapsed on the host
host_tick_rate                              207003387                       # Simulator tick rate (ticks/s)
sim_freq                                 1000000000000                       # Frequency of simulated ticks
sim_insts                                    10992054                       # Number of instructions simulated
sim_ops                                      19861752                       # Number of ops (including micro ops) simulated
sim_seconds                                  0.000012                       # Number of seconds simulated
sim_ticks                                    12452000                       # Number of ticks simulated
system.acc0_datapath.acp_latency::samples            0                       # Histogram of ACP transaction total latency
system.acc0_datapath.acp_latency::mean            nan                       # Histogram of ACP transaction total latency
system.acc0_datapath.acp_latency::gmean           nan                       # Histogram of ACP transaction total latency
system.acc0_datapath.acp_latency::stdev           nan                       # Histogram of ACP transaction total latency
system.acc0_datapath.acp_latency::0                 0                       # Histogram of ACP transaction total latency
system.acc0_datapath.acp_latency::1                 0                       # Histogram of ACP transaction total latency
system.acc0_datapath.acp_latency::2                 0                       # Histogram of ACP transaction total latency
system.acc0_datapath.acp_latency::3                 0                       # Histogram of ACP transaction total latency
system.acc0_datapath.acp_latency::4                 0                       # Histogram of ACP transaction total latency
system.acc0_datapath.acp_latency::5                 0                       # Histogram of ACP transaction total latency
system.acc0_datapath.acp_latency::6                 0                       # Histogram of ACP transaction total latency
system.acc0_datapath.acp_latency::7                 0                       # Histogram of ACP transaction total latency
system.acc0_datapath.acp_latency::8                 0                       # Histogram of ACP transaction total latency
system.acc0_datapath.acp_latency::9                 0                       # Histogram of ACP transaction total latency
system.acc0_datapath.acp_latency::10                0                       # Histogram of ACP transaction total latency
system.acc0_datapath.acp_latency::11                0                       # Histogram of ACP transaction total latency
system.acc0_datapath.acp_latency::12                0                       # Histogram of ACP transaction total latency
system.acc0_datapath.acp_latency::13                0                       # Histogram of ACP transaction total latency
system.acc0_datapath.acp_latency::14                0                       # Histogram of ACP transaction total latency
system.acc0_datapath.acp_latency::15                0                       # Histogram of ACP transaction total latency
system.acc0_datapath.acp_latency::16                0                       # Histogram of ACP transaction total latency
system.acc0_datapath.acp_latency::17                0                       # Histogram of ACP transaction total latency
system.acc0_datapath.acp_latency::18                0                       # Histogram of ACP transaction total latency
system.acc0_datapath.acp_latency::19                0                       # Histogram of ACP transaction total latency
system.acc0_datapath.acp_latency::20                0                       # Histogram of ACP transaction total latency
system.acc0_datapath.acp_latency::21                0                       # Histogram of ACP transaction total latency
system.acc0_datapath.acp_latency::22                0                       # Histogram of ACP transaction total latency
system.acc0_datapath.acp_latency::23                0                       # Histogram of ACP transaction total latency
system.acc0_datapath.acp_latency::24                0                       # Histogram of ACP transaction total latency
system.acc0_datapath.acp_latency::25                0                       # Histogram of ACP transaction total latency
system.acc0_datapath.acp_latency::26                0                       # Histogram of ACP transaction total latency
system.acc0_datapath.acp_latency::27                0                       # Histogram of ACP transaction total latency
system.acc0_datapath.acp_latency::28                0                       # Histogram of ACP transaction total latency
system.acc0_datapath.acp_latency::29                0                       # Histogram of ACP transaction total latency
system.acc0_datapath.acp_latency::total             0                       # Histogram of ACP transaction total latency
system.acc0_datapath.acp_queue_time::samples            0                       # Histogram of time ACP request spent in queue
system.acc0_datapath.acp_queue_time::mean          nan                       # Histogram of time ACP request spent in queue
system.acc0_datapath.acp_queue_time::gmean          nan                       # Histogram of time ACP request spent in queue
system.acc0_datapath.acp_queue_time::stdev          nan                       # Histogram of time ACP request spent in queue
system.acc0_datapath.acp_queue_time::0              0                       # Histogram of time ACP request spent in queue
system.acc0_datapath.acp_queue_time::1              0                       # Histogram of time ACP request spent in queue
system.acc0_datapath.acp_queue_time::2              0                       # Histogram of time ACP request spent in queue
system.acc0_datapath.acp_queue_time::3              0                       # Histogram of time ACP request spent in queue
system.acc0_datapath.acp_queue_time::4              0                       # Histogram of time ACP request spent in queue
system.acc0_datapath.acp_queue_time::5              0                       # Histogram of time ACP request spent in queue
system.acc0_datapath.acp_queue_time::6              0                       # Histogram of time ACP request spent in queue
system.acc0_datapath.acp_queue_time::7              0                       # Histogram of time ACP request spent in queue
system.acc0_datapath.acp_queue_time::8              0                       # Histogram of time ACP request spent in queue
system.acc0_datapath.acp_queue_time::9              0                       # Histogram of time ACP request spent in queue
system.acc0_datapath.acp_queue_time::10             0                       # Histogram of time ACP request spent in queue
system.acc0_datapath.acp_queue_time::11             0                       # Histogram of time ACP request spent in queue
system.acc0_datapath.acp_queue_time::12             0                       # Histogram of time ACP request spent in queue
system.acc0_datapath.acp_queue_time::13             0                       # Histogram of time ACP request spent in queue
system.acc0_datapath.acp_queue_time::14             0                       # Histogram of time ACP request spent in queue
system.acc0_datapath.acp_queue_time::15             0                       # Histogram of time ACP request spent in queue
system.acc0_datapath.acp_queue_time::16             0                       # Histogram of time ACP request spent in queue
system.acc0_datapath.acp_queue_time::17             0                       # Histogram of time ACP request spent in queue
system.acc0_datapath.acp_queue_time::18             0                       # Histogram of time ACP request spent in queue
system.acc0_datapath.acp_queue_time::19             0                       # Histogram of time ACP request spent in queue
system.acc0_datapath.acp_queue_time::20             0                       # Histogram of time ACP request spent in queue
system.acc0_datapath.acp_queue_time::21             0                       # Histogram of time ACP request spent in queue
system.acc0_datapath.acp_queue_time::22             0                       # Histogram of time ACP request spent in queue
system.acc0_datapath.acp_queue_time::23             0                       # Histogram of time ACP request spent in queue
system.acc0_datapath.acp_queue_time::24             0                       # Histogram of time ACP request spent in queue
system.acc0_datapath.acp_queue_time::25             0                       # Histogram of time ACP request spent in queue
system.acc0_datapath.acp_queue_time::26             0                       # Histogram of time ACP request spent in queue
system.acc0_datapath.acp_queue_time::27             0                       # Histogram of time ACP request spent in queue
system.acc0_datapath.acp_queue_time::28             0                       # Histogram of time ACP request spent in queue
system.acc0_datapath.acp_queue_time::29             0                       # Histogram of time ACP request spent in queue
system.acc0_datapath.acp_queue_time::total            0                       # Histogram of time ACP request spent in queue
system.acc0_datapath.cache_queue_reads              0                       # Number of reads to the acc0_datapath.cache_queue
system.acc0_datapath.cache_queue_writes             0                       # Number of writes to the acc0_datapath.cache_queue
system.acc0_datapath.dcache_latency::samples            0                       # Histogram of dcache total access latency
system.acc0_datapath.dcache_latency::mean          nan                       # Histogram of dcache total access latency
system.acc0_datapath.dcache_latency::gmean          nan                       # Histogram of dcache total access latency
system.acc0_datapath.dcache_latency::stdev          nan                       # Histogram of dcache total access latency
system.acc0_datapath.dcache_latency::0              0                       # Histogram of dcache total access latency
system.acc0_datapath.dcache_latency::1              0                       # Histogram of dcache total access latency
system.acc0_datapath.dcache_latency::2              0                       # Histogram of dcache total access latency
system.acc0_datapath.dcache_latency::3              0                       # Histogram of dcache total access latency
system.acc0_datapath.dcache_latency::4              0                       # Histogram of dcache total access latency
system.acc0_datapath.dcache_latency::5              0                       # Histogram of dcache total access latency
system.acc0_datapath.dcache_latency::6              0                       # Histogram of dcache total access latency
system.acc0_datapath.dcache_latency::7              0                       # Histogram of dcache total access latency
system.acc0_datapath.dcache_latency::8              0                       # Histogram of dcache total access latency
system.acc0_datapath.dcache_latency::9              0                       # Histogram of dcache total access latency
system.acc0_datapath.dcache_latency::10             0                       # Histogram of dcache total access latency
system.acc0_datapath.dcache_latency::11             0                       # Histogram of dcache total access latency
system.acc0_datapath.dcache_latency::12             0                       # Histogram of dcache total access latency
system.acc0_datapath.dcache_latency::13             0                       # Histogram of dcache total access latency
system.acc0_datapath.dcache_latency::14             0                       # Histogram of dcache total access latency
system.acc0_datapath.dcache_latency::15             0                       # Histogram of dcache total access latency
system.acc0_datapath.dcache_latency::16             0                       # Histogram of dcache total access latency
system.acc0_datapath.dcache_latency::17             0                       # Histogram of dcache total access latency
system.acc0_datapath.dcache_latency::18             0                       # Histogram of dcache total access latency
system.acc0_datapath.dcache_latency::19             0                       # Histogram of dcache total access latency
system.acc0_datapath.dcache_latency::20             0                       # Histogram of dcache total access latency
system.acc0_datapath.dcache_latency::21             0                       # Histogram of dcache total access latency
system.acc0_datapath.dcache_latency::22             0                       # Histogram of dcache total access latency
system.acc0_datapath.dcache_latency::23             0                       # Histogram of dcache total access latency
system.acc0_datapath.dcache_latency::24             0                       # Histogram of dcache total access latency
system.acc0_datapath.dcache_latency::25             0                       # Histogram of dcache total access latency
system.acc0_datapath.dcache_latency::26             0                       # Histogram of dcache total access latency
system.acc0_datapath.dcache_latency::27             0                       # Histogram of dcache total access latency
system.acc0_datapath.dcache_latency::28             0                       # Histogram of dcache total access latency
system.acc0_datapath.dcache_latency::29             0                       # Histogram of dcache total access latency
system.acc0_datapath.dcache_latency::total            0                       # Histogram of dcache total access latency
system.acc0_datapath.dcache_queue_time::samples            0                       # Histogram of time dcache request spent in queue
system.acc0_datapath.dcache_queue_time::mean          nan                       # Histogram of time dcache request spent in queue
system.acc0_datapath.dcache_queue_time::gmean          nan                       # Histogram of time dcache request spent in queue
system.acc0_datapath.dcache_queue_time::stdev          nan                       # Histogram of time dcache request spent in queue
system.acc0_datapath.dcache_queue_time::0            0                       # Histogram of time dcache request spent in queue
system.acc0_datapath.dcache_queue_time::1            0                       # Histogram of time dcache request spent in queue
system.acc0_datapath.dcache_queue_time::2            0                       # Histogram of time dcache request spent in queue
system.acc0_datapath.dcache_queue_time::3            0                       # Histogram of time dcache request spent in queue
system.acc0_datapath.dcache_queue_time::4            0                       # Histogram of time dcache request spent in queue
system.acc0_datapath.dcache_queue_time::5            0                       # Histogram of time dcache request spent in queue
system.acc0_datapath.dcache_queue_time::6            0                       # Histogram of time dcache request spent in queue
system.acc0_datapath.dcache_queue_time::7            0                       # Histogram of time dcache request spent in queue
system.acc0_datapath.dcache_queue_time::8            0                       # Histogram of time dcache request spent in queue
system.acc0_datapath.dcache_queue_time::9            0                       # Histogram of time dcache request spent in queue
system.acc0_datapath.dcache_queue_time::10            0                       # Histogram of time dcache request spent in queue
system.acc0_datapath.dcache_queue_time::11            0                       # Histogram of time dcache request spent in queue
system.acc0_datapath.dcache_queue_time::12            0                       # Histogram of time dcache request spent in queue
system.acc0_datapath.dcache_queue_time::13            0                       # Histogram of time dcache request spent in queue
system.acc0_datapath.dcache_queue_time::14            0                       # Histogram of time dcache request spent in queue
system.acc0_datapath.dcache_queue_time::15            0                       # Histogram of time dcache request spent in queue
system.acc0_datapath.dcache_queue_time::16            0                       # Histogram of time dcache request spent in queue
system.acc0_datapath.dcache_queue_time::17            0                       # Histogram of time dcache request spent in queue
system.acc0_datapath.dcache_queue_time::18            0                       # Histogram of time dcache request spent in queue
system.acc0_datapath.dcache_queue_time::19            0                       # Histogram of time dcache request spent in queue
system.acc0_datapath.dcache_queue_time::20            0                       # Histogram of time dcache request spent in queue
system.acc0_datapath.dcache_queue_time::21            0                       # Histogram of time dcache request spent in queue
system.acc0_datapath.dcache_queue_time::22            0                       # Histogram of time dcache request spent in queue
system.acc0_datapath.dcache_queue_time::23            0                       # Histogram of time dcache request spent in queue
system.acc0_datapath.dcache_queue_time::24            0                       # Histogram of time dcache request spent in queue
system.acc0_datapath.dcache_queue_time::25            0                       # Histogram of time dcache request spent in queue
system.acc0_datapath.dcache_queue_time::26            0                       # Histogram of time dcache request spent in queue
system.acc0_datapath.dcache_queue_time::27            0                       # Histogram of time dcache request spent in queue
system.acc0_datapath.dcache_queue_time::28            0                       # Histogram of time dcache request spent in queue
system.acc0_datapath.dcache_queue_time::29            0                       # Histogram of time dcache request spent in queue
system.acc0_datapath.dcache_queue_time::total            0                       # Histogram of time dcache request spent in queue
system.acc0_datapath.dma_setup_cycles               0                       # Total number of cycles spent on setting up DMA transfers.
system.acc0_datapath.sim_cycles                     0                       # Total accelerator cycles
system.acc0_datapath.tlb.hits                       0                       # TLB hits
system.acc0_datapath.tlb.misses                     0                       # TLB misses
system.acc0_datapath.tlb.reads                      0                       # TLB reads
system.acc0_datapath.tlb.updates                    0                       # TLB updates
system.acc0_datapath.total_acp_loads                0                       # Total number of ACP loads
system.acc0_datapath.total_acp_stores               0                       # Total number of ACP stores.
system.acc0_datapath.total_dcache_loads             0                       # Total number of dcache loads
system.acc0_datapath.total_dcache_stores            0                       # Total number of dcache stores.
system.cpu.committedInsts                           0                       # Number of instructions committed
system.cpu.committedOps                             0                       # Number of ops (including micro ops) committed
system.cpu.dtb.rdAccesses                           0                       # TLB accesses on read requests
system.cpu.dtb.rdMisses                             0                       # TLB misses on read requests
system.cpu.dtb.wrAccesses                           0                       # TLB accesses on write requests
system.cpu.dtb.wrMisses                             0                       # TLB misses on write requests
system.cpu.idle_fraction                            0                       # Percentage of idle cycles
system.cpu.itb.rdAccesses                           0                       # TLB accesses on read requests
system.cpu.itb.rdMisses                             0                       # TLB misses on read requests
system.cpu.itb.wrAccesses                           0                       # TLB accesses on write requests
system.cpu.itb.wrMisses                             0                       # TLB misses on write requests
system.cpu.not_idle_fraction                        1                       # Percentage of non-idle cycles
system.cpu.numCycles                                0                       # number of cpu cycles simulated
system.cpu.numWorkItemsCompleted                    0                       # number of work items this cpu completed
system.cpu.numWorkItemsStarted                      0                       # number of work items this cpu started
system.cpu.num_busy_cycles                          0                       # Number of busy cycles
system.cpu.num_conditional_control_insts            0                       # number of instructions that are conditional controls
system.cpu.num_fp_alu_accesses                      0                       # Number of float alu accesses
system.cpu.num_fp_insts                             0                       # number of float instructions
system.cpu.num_fp_register_reads                    0                       # number of times the floating registers were read
system.cpu.num_fp_register_writes                   0                       # number of times the floating registers were written
system.cpu.num_func_calls                           0                       # number of times a function call or return occured
system.cpu.num_idle_cycles                          0                       # Number of idle cycles
system.cpu.num_int_alu_accesses                     0                       # Number of integer alu accesses
system.cpu.num_int_insts                            0                       # number of integer instructions
system.cpu.num_int_register_reads                   0                       # number of times the integer registers were read
system.cpu.num_int_register_writes                  0                       # number of times the integer registers were written
system.cpu.num_load_insts                           0                       # Number of load instructions
system.cpu.num_mem_refs                             0                       # number of memory refs
system.cpu.num_store_insts                          0                       # Number of store instructions
system.cpu.num_vec_alu_accesses                     0                       # Number of vector alu accesses
system.cpu.num_vec_insts                            0                       # number of vector instructions
system.cpu.num_vec_register_reads                   0                       # number of times the vector registers were read
system.cpu.num_vec_register_writes                  0                       # number of times the vector registers were written
system.cpu.op_class::No_OpClass                     0                       # Class of executed instruction
system.cpu.op_class::IntAlu                         0                       # Class of executed instruction
system.cpu.op_class::IntMult                        0                       # Class of executed instruction
system.cpu.op_class::IntDiv                         0                       # Class of executed instruction
system.cpu.op_class::FloatAdd                       0                       # Class of executed instruction
system.cpu.op_class::FloatCmp                       0                       # Class of executed instruction
system.cpu.op_class::FloatCvt                       0                       # Class of executed instruction
system.cpu.op_class::FloatMult                      0                       # Class of executed instruction
system.cpu.op_class::FloatMultAcc                   0                       # Class of executed instruction
system.cpu.op_class::FloatDiv                       0                       # Class of executed instruction
system.cpu.op_class::FloatMisc                      0                       # Class of executed instruction
system.cpu.op_class::FloatSqrt                      0                       # Class of executed instruction
system.cpu.op_class::SimdAdd                        0                       # Class of executed instruction
system.cpu.op_class::SimdAddAcc                     0                       # Class of executed instruction
system.cpu.op_class::SimdAlu                        0                       # Class of executed instruction
system.cpu.op_class::SimdCmp                        0                       # Class of executed instruction
system.cpu.op_class::SimdCvt                        0                       # Class of executed instruction
system.cpu.op_class::SimdMisc                       0                       # Class of executed instruction
system.cpu.op_class::SimdMult                       0                       # Class of executed instruction
system.cpu.op_class::SimdMultAcc                    0                       # Class of executed instruction
system.cpu.op_class::SimdShift                      0                       # Class of executed instruction
system.cpu.op_class::SimdShiftAcc                   0                       # Class of executed instruction
system.cpu.op_class::SimdDiv                        0                       # Class of executed instruction
system.cpu.op_class::SimdSqrt                       0                       # Class of executed instruction
system.cpu.op_class::SimdFloatAdd                   0                       # Class of executed instruction
system.cpu.op_class::SimdFloatAlu                   0                       # Class of executed instruction
system.cpu.op_class::SimdFloatCmp                   0                       # Class of executed instruction
system.cpu.op_class::SimdFloatCvt                   0                       # Class of executed instruction
system.cpu.op_class::SimdFloatDiv                   0                       # Class of executed instruction
system.cpu.op_class::SimdFloatMisc                  0                       # Class of executed instruction
system.cpu.op_class::SimdFloatMult                  0                       # Class of executed instruction
system.cpu.op_class::SimdFloatMultAcc               0                       # Class of executed instruction
system.cpu.op_class::SimdFloatSqrt                  0                       # Class of executed instruction
system.cpu.op_class::SimdReduceAdd                  0                       # Class of executed instruction
system.cpu.op_class::SimdReduceAlu                  0                       # Class of executed instruction
system.cpu.op_class::SimdReduceCmp                  0                       # Class of executed instruction
system.cpu.op_class::SimdFloatReduceAdd             0                       # Class of executed instruction
system.cpu.op_class::SimdFloatReduceCmp             0                       # Class of executed instruction
system.cpu.op_class::SimdAes                        0                       # Class of executed instruction
system.cpu.op_class::SimdAesMix                     0                       # Class of executed instruction
system.cpu.op_class::SimdSha1Hash                   0                       # Class of executed instruction
system.cpu.op_class::SimdSha1Hash2                  0                       # Class of executed instruction
system.cpu.op_class::SimdSha256Hash                 0                       # Class of executed instruction
system.cpu.op_class::SimdSha256Hash2                0                       # Class of executed instruction
system.cpu.op_class::SimdShaSigma2                  0                       # Class of executed instruction
system.cpu.op_class::SimdShaSigma3                  0                       # Class of executed instruction
system.cpu.op_class::SimdPredAlu                    0                       # Class of executed instruction
system.cpu.op_class::MemRead                        0                       # Class of executed instruction
system.cpu.op_class::MemWrite                       0                       # Class of executed instruction
system.cpu.op_class::FloatMemRead                   0                       # Class of executed instruction
system.cpu.op_class::FloatMemWrite                  0                       # Class of executed instruction
system.cpu.op_class::IprAccess                      0                       # Class of executed instruction
system.cpu.op_class::InstPrefetch                   0                       # Class of executed instruction
system.cpu.op_class::total                          0                       # Class of executed instruction
system.cpu.workload.numSyscalls                     3                       # Number of system calls
system.ruby.Directory_Controller.Fetch            305      0.00%      0.00%
system.ruby.Directory_Controller.I.Fetch          305      0.00%      0.00%
system.ruby.Directory_Controller.IM.Memory_Data          305      0.00%      0.00%
system.ruby.Directory_Controller.Memory_Data          305      0.00%      0.00%
system.ruby.IFETCH.hit_latency_hist_seqr::bucket_size            1                      
system.ruby.IFETCH.hit_latency_hist_seqr::max_bucket            9                      
system.ruby.IFETCH.hit_latency_hist_seqr::samples          957                      
system.ruby.IFETCH.hit_latency_hist_seqr |         957    100.00%    100.00% |           0      0.00%    100.00% |           0      0.00%    100.00% |           0      0.00%    100.00% |           0      0.00%    100.00% |           0      0.00%    100.00% |           0      0.00%    100.00% |           0      0.00%    100.00% |           0      0.00%    100.00% |           0      0.00%    100.00%
system.ruby.IFETCH.hit_latency_hist_seqr::total          957                      
system.ruby.IFETCH.latency_hist_seqr::bucket_size            1                      
system.ruby.IFETCH.latency_hist_seqr::max_bucket            9                      
system.ruby.IFETCH.latency_hist_seqr::samples         1158                      
system.ruby.IFETCH.latency_hist_seqr     |        1158    100.00%    100.00% |           0      0.00%    100.00% |           0      0.00%    100.00% |           0      0.00%    100.00% |           0      0.00%    100.00% |           0      0.00%    100.00% |           0      0.00%    100.00% |           0      0.00%    100.00% |           0      0.00%    100.00% |           0      0.00%    100.00%
system.ruby.IFETCH.latency_hist_seqr::total         1158                      
system.ruby.IFETCH.miss_latency_hist_seqr::bucket_size            1                      
system.ruby.IFETCH.miss_latency_hist_seqr::max_bucket            9                      
system.ruby.IFETCH.miss_latency_hist_seqr::samples          201                      
system.ruby.IFETCH.miss_latency_hist_seqr |         201    100.00%    100.00% |           0      0.00%    100.00% |           0      0.00%    100.00% |           0      0.00%    100.00% |           0      0.00%    100.00% |           0      0.00%    100.00% |           0      0.00%    100.00% |           0      0.00%    100.00% |           0      0.00%    100.00% |           0      0.00%    100.00%
system.ruby.IFETCH.miss_latency_hist_seqr::total          201                      
system.ruby.L1Cache_Controller.Ack_all   |           1    100.00%    100.00% |           0      0.00%    100.00%
system.ruby.L1Cache_Controller.Ack_all::total            1                      
system.ruby.L1Cache_Controller.Data_Exclusive |          94    100.00%    100.00% |           0      0.00%    100.00%
system.ruby.L1Cache_Controller.Data_Exclusive::total           94                      
system.ruby.L1Cache_Controller.Data_all_Acks |         234    100.00%    100.00% |           0      0.00%    100.00%
system.ruby.L1Cache_Controller.Data_all_Acks::total          234                      
system.ruby.L1Cache_Controller.E.L1_Replacement |           1    100.00%    100.00% |           0      0.00%    100.00%
system.ruby.L1Cache_Controller.E.L1_Replacement::total            1                      
system.ruby.L1Cache_Controller.E.Load    |         332    100.00%    100.00% |           0      0.00%    100.00%
system.ruby.L1Cache_Controller.E.Load::total          332                      
system.ruby.L1Cache_Controller.E.Store   |          17    100.00%    100.00% |           0      0.00%    100.00%
system.ruby.L1Cache_Controller.E.Store::total           17                      
system.ruby.L1Cache_Controller.IM.Data_all_Acks |          27    100.00%    100.00% |           0      0.00%    100.00%
system.ruby.L1Cache_Controller.IM.Data_all_Acks::total           27                      
system.ruby.L1Cache_Controller.IS.Data_Exclusive |          94    100.00%    100.00% |           0      0.00%    100.00%
system.ruby.L1Cache_Controller.IS.Data_Exclusive::total           94                      
system.ruby.L1Cache_Controller.IS.Data_all_Acks |         207    100.00%    100.00% |           0      0.00%    100.00%
system.ruby.L1Cache_Controller.IS.Data_all_Acks::total          207                      
system.ruby.L1Cache_Controller.Ifetch    |        1160    100.00%    100.00% |           0      0.00%    100.00%
system.ruby.L1Cache_Controller.Ifetch::total         1160                      
system.ruby.L1Cache_Controller.L1_Replacement |          32    100.00%    100.00% |           0      0.00%    100.00%
system.ruby.L1Cache_Controller.L1_Replacement::total           32                      
system.ruby.L1Cache_Controller.Load      |         704    100.00%    100.00% |           0      0.00%    100.00%
system.ruby.L1Cache_Controller.Load::total          704                      
system.ruby.L1Cache_Controller.M.L1_Replacement |           1    100.00%    100.00% |           0      0.00%    100.00%
system.ruby.L1Cache_Controller.M.L1_Replacement::total            1                      
system.ruby.L1Cache_Controller.M.Load    |         269    100.00%    100.00% |           0      0.00%    100.00%
system.ruby.L1Cache_Controller.M.Load::total          269                      
system.ruby.L1Cache_Controller.M.Store   |         314    100.00%    100.00% |           0      0.00%    100.00%
system.ruby.L1Cache_Controller.M.Store::total          314                      
system.ruby.L1Cache_Controller.M_I.Ifetch |           2    100.00%    100.00% |           0      0.00%    100.00%
system.ruby.L1Cache_Controller.M_I.Ifetch::total            2                      
system.ruby.L1Cache_Controller.M_I.WB_Ack |           2    100.00%    100.00% |           0      0.00%    100.00%
system.ruby.L1Cache_Controller.M_I.WB_Ack::total            2                      
system.ruby.L1Cache_Controller.NP.Ifetch |         201    100.00%    100.00% |           0      0.00%    100.00%
system.ruby.L1Cache_Controller.NP.Ifetch::total          201                      
system.ruby.L1Cache_Controller.NP.Load   |         100    100.00%    100.00% |           0      0.00%    100.00%
system.ruby.L1Cache_Controller.NP.Load::total          100                      
system.ruby.L1Cache_Controller.NP.Store  |          27    100.00%    100.00% |           0      0.00%    100.00%
system.ruby.L1Cache_Controller.NP.Store::total           27                      
system.ruby.L1Cache_Controller.S.Ifetch  |         957    100.00%    100.00% |           0      0.00%    100.00%
system.ruby.L1Cache_Controller.S.Ifetch::total          957                      
system.ruby.L1Cache_Controller.S.L1_Replacement |          30    100.00%    100.00% |           0      0.00%    100.00%
system.ruby.L1Cache_Controller.S.L1_Replacement::total           30                      
system.ruby.L1Cache_Controller.S.Load    |           3    100.00%    100.00% |           0      0.00%    100.00%
system.ruby.L1Cache_Controller.S.Load::total            3                      
system.ruby.L1Cache_Controller.S.Store   |           1    100.00%    100.00% |           0      0.00%    100.00%
system.ruby.L1Cache_Controller.S.Store::total            1                      
system.ruby.L1Cache_Controller.SM.Ack_all |           1    100.00%    100.00% |           0      0.00%    100.00%
system.ruby.L1Cache_Controller.SM.Ack_all::total            1                      
system.ruby.L1Cache_Controller.Store     |         359    100.00%    100.00% |           0      0.00%    100.00%
system.ruby.L1Cache_Controller.Store::total          359                      
system.ruby.L1Cache_Controller.WB_Ack    |           2    100.00%    100.00% |           0      0.00%    100.00%
system.ruby.L1Cache_Controller.WB_Ack::total            2                      
system.ruby.L2Cache_Controller.Exclusive_Unblock          122      0.00%      0.00%
system.ruby.L2Cache_Controller.IM.Mem_Data           27      0.00%      0.00%
system.ruby.L2Cache_Controller.IS.Mem_Data          184      0.00%      0.00%
system.ruby.L2Cache_Controller.ISS.Mem_Data           94      0.00%      0.00%
system.ruby.L2Cache_Controller.L1_GETS            100      0.00%      0.00%
system.ruby.L2Cache_Controller.L1_GETX             27      0.00%      0.00%
system.ruby.L2Cache_Controller.L1_GET_INSTR          201      0.00%      0.00%
system.ruby.L2Cache_Controller.L1_PUTX              2      0.00%      0.00%
system.ruby.L2Cache_Controller.L1_UPGRADE            1      0.00%      0.00%
system.ruby.L2Cache_Controller.M.L1_GET_INSTR            2      0.00%      0.00%
system.ruby.L2Cache_Controller.MT.L1_PUTX            2      0.00%      0.00%
system.ruby.L2Cache_Controller.MT_MB.Exclusive_Unblock          121      0.00%      0.00%
system.ruby.L2Cache_Controller.Mem_Data           305      0.00%      0.00%
system.ruby.L2Cache_Controller.NP.L1_GETS           94      0.00%      0.00%
system.ruby.L2Cache_Controller.NP.L1_GETX           27      0.00%      0.00%
system.ruby.L2Cache_Controller.NP.L1_GET_INSTR          184      0.00%      0.00%
system.ruby.L2Cache_Controller.SS.L1_GETS            6      0.00%      0.00%
system.ruby.L2Cache_Controller.SS.L1_GET_INSTR           15      0.00%      0.00%
system.ruby.L2Cache_Controller.SS.L1_UPGRADE            1      0.00%      0.00%
system.ruby.L2Cache_Controller.SS_MB.Exclusive_Unblock            1      0.00%      0.00%
system.ruby.LD.hit_latency_hist_seqr::bucket_size            1                      
system.ruby.LD.hit_latency_hist_seqr::max_bucket            9                      
system.ruby.LD.hit_latency_hist_seqr::samples          604                      
system.ruby.LD.hit_latency_hist_seqr     |         604    100.00%    100.00% |           0      0.00%    100.00% |           0      0.00%    100.00% |           0      0.00%    100.00% |           0      0.00%    100.00% |           0      0.00%    100.00% |           0      0.00%    100.00% |           0      0.00%    100.00% |           0      0.00%    100.00% |           0      0.00%    100.00%
system.ruby.LD.hit_latency_hist_seqr::total          604                      
system.ruby.LD.latency_hist_seqr::bucket_size            1                      
system.ruby.LD.latency_hist_seqr::max_bucket            9                      
system.ruby.LD.latency_hist_seqr::samples          704                      
system.ruby.LD.latency_hist_seqr         |         704    100.00%    100.00% |           0      0.00%    100.00% |           0      0.00%    100.00% |           0      0.00%    100.00% |           0      0.00%    100.00% |           0      0.00%    100.00% |           0      0.00%    100.00% |           0      0.00%    100.00% |           0      0.00%    100.00% |           0      0.00%    100.00%
system.ruby.LD.latency_hist_seqr::total           704                      
system.ruby.LD.miss_latency_hist_seqr::bucket_size            1                      
system.ruby.LD.miss_latency_hist_seqr::max_bucket            9                      
system.ruby.LD.miss_latency_hist_seqr::samples          100                      
system.ruby.LD.miss_latency_hist_seqr    |         100    100.00%    100.00% |           0      0.00%    100.00% |           0      0.00%    100.00% |           0      0.00%    100.00% |           0      0.00%    100.00% |           0      0.00%    100.00% |           0      0.00%    100.00% |           0      0.00%    100.00% |           0      0.00%    100.00% |           0      0.00%    100.00%
system.ruby.LD.miss_latency_hist_seqr::total          100                      
system.ruby.RMW_Read.hit_latency_hist_seqr::bucket_size            1                      
system.ruby.RMW_Read.hit_latency_hist_seqr::max_bucket            9                      
system.ruby.RMW_Read.hit_latency_hist_seqr::samples           29                      
system.ruby.RMW_Read.hit_latency_hist_seqr |          29    100.00%    100.00% |           0      0.00%    100.00% |           0      0.00%    100.00% |           0      0.00%    100.00% |           0      0.00%    100.00% |           0      0.00%    100.00% |           0      0.00%    100.00% |           0      0.00%    100.00% |           0      0.00%    100.00% |           0      0.00%    100.00%
system.ruby.RMW_Read.hit_latency_hist_seqr::total           29                      
system.ruby.RMW_Read.latency_hist_seqr::bucket_size            1                      
system.ruby.RMW_Read.latency_hist_seqr::max_bucket            9                      
system.ruby.RMW_Read.latency_hist_seqr::samples           35                      
system.ruby.RMW_Read.latency_hist_seqr   |          35    100.00%    100.00% |           0      0.00%    100.00% |           0      0.00%    100.00% |           0      0.00%    100.00% |           0      0.00%    100.00% |           0      0.00%    100.00% |           0      0.00%    100.00% |           0      0.00%    100.00% |           0      0.00%    100.00% |           0      0.00%    100.00%
system.ruby.RMW_Read.latency_hist_seqr::total           35                      
system.ruby.RMW_Read.miss_latency_hist_seqr::bucket_size            1                      
system.ruby.RMW_Read.miss_latency_hist_seqr::max_bucket            9                      
system.ruby.RMW_Read.miss_latency_hist_seqr::samples            6                      
system.ruby.RMW_Read.miss_latency_hist_seqr |           6    100.00%    100.00% |           0      0.00%    100.00% |           0      0.00%    100.00% |           0      0.00%    100.00% |           0      0.00%    100.00% |           0      0.00%    100.00% |           0      0.00%    100.00% |           0      0.00%    100.00% |           0      0.00%    100.00% |           0      0.00%    100.00%
system.ruby.RMW_Read.miss_latency_hist_seqr::total            6                      
system.ruby.ST.hit_latency_hist_seqr::bucket_size            1                      
system.ruby.ST.hit_latency_hist_seqr::max_bucket            9                      
system.ruby.ST.hit_latency_hist_seqr::samples          302                      
system.ruby.ST.hit_latency_hist_seqr     |         302    100.00%    100.00% |           0      0.00%    100.00% |           0      0.00%    100.00% |           0      0.00%    100.00% |           0      0.00%    100.00% |           0      0.00%    100.00% |           0      0.00%    100.00% |           0      0.00%    100.00% |           0      0.00%    100.00% |           0      0.00%    100.00%
system.ruby.ST.hit_latency_hist_seqr::total          302                      
system.ruby.ST.latency_hist_seqr::bucket_size            1                      
system.ruby.ST.latency_hist_seqr::max_bucket            9                      
system.ruby.ST.latency_hist_seqr::samples          324                      
system.ruby.ST.latency_hist_seqr         |         324    100.00%    100.00% |           0      0.00%    100.00% |           0      0.00%    100.00% |           0      0.00%    100.00% |           0      0.00%    100.00% |           0      0.00%    100.00% |           0      0.00%    100.00% |           0      0.00%    100.00% |           0      0.00%    100.00% |           0      0.00%    100.00%
system.ruby.ST.latency_hist_seqr::total           324                      
system.ruby.ST.miss_latency_hist_seqr::bucket_size            1                      
system.ruby.ST.miss_latency_hist_seqr::max_bucket            9                      
system.ruby.ST.miss_latency_hist_seqr::samples           22                      
system.ruby.ST.miss_latency_hist_seqr    |          22    100.00%    100.00% |           0      0.00%    100.00% |           0      0.00%    100.00% |           0      0.00%    100.00% |           0      0.00%    100.00% |           0      0.00%    100.00% |           0      0.00%    100.00% |           0      0.00%    100.00% |           0      0.00%    100.00% |           0      0.00%    100.00%
system.ruby.ST.miss_latency_hist_seqr::total           22                      
system.ruby.acp_cntrl_acc0.sequencer.dcache.demand_accesses            0                       # Number of cache demand accesses
system.ruby.acp_cntrl_acc0.sequencer.dcache.demand_hits            0                       # Number of cache demand hits
system.ruby.acp_cntrl_acc0.sequencer.dcache.demand_misses            0                       # Number of cache demand misses
system.ruby.acp_cntrl_acc0.sequencer.dcache.read_accesses            0                       # Number of cache read accesses
system.ruby.acp_cntrl_acc0.sequencer.dcache.read_hits            0                       # Number of cache read hits
system.ruby.acp_cntrl_acc0.sequencer.dcache.read_misses            0                       # Number of cache read misses
system.ruby.acp_cntrl_acc0.sequencer.dcache.write_accesses            0                       # Number of cache write accesses
system.ruby.acp_cntrl_acc0.sequencer.dcache.write_hits            0                       # Number of cache write hits
system.ruby.acp_cntrl_acc0.sequencer.dcache.write_misses            0                       # Number of cache write misses
system.ruby.acp_cntrl_acc0.sequencer.icache.demand_accesses            0                       # Number of cache demand accesses
system.ruby.acp_cntrl_acc0.sequencer.icache.demand_hits            0                       # Number of cache demand hits
system.ruby.acp_cntrl_acc0.sequencer.icache.demand_misses            0                       # Number of cache demand misses
system.ruby.acp_cntrl_acc0.sequencer.icache.read_accesses            0                       # Number of cache read accesses
system.ruby.acp_cntrl_acc0.sequencer.icache.read_hits            0                       # Number of cache read hits
system.ruby.acp_cntrl_acc0.sequencer.icache.read_misses            0                       # Number of cache read misses
system.ruby.acp_cntrl_acc0.sequencer.icache.write_accesses            0                       # Number of cache write accesses
system.ruby.acp_cntrl_acc0.sequencer.icache.write_hits            0                       # Number of cache write hits
system.ruby.acp_cntrl_acc0.sequencer.icache.write_misses            0                       # Number of cache write misses
system.ruby.delayHist::bucket_size                  1                       # delay histogram for all message
system.ruby.delayHist::max_bucket                   9                       # delay histogram for all message
system.ruby.delayHist::samples                   1089                       # delay histogram for all message
system.ruby.delayHist::mean                  0.025712                       # delay histogram for all message
system.ruby.delayHist::stdev                 0.308102                       # delay histogram for all message
system.ruby.delayHist                    |        1081     99.27%     99.27% |           0      0.00%     99.27% |           2      0.18%     99.45% |           0      0.00%     99.45% |           6      0.55%    100.00% |           0      0.00%    100.00% |           0      0.00%    100.00% |           0      0.00%    100.00% |           0      0.00%    100.00% |           0      0.00%    100.00% # delay histogram for all message
system.ruby.delayHist::total                     1089                       # delay histogram for all message
system.ruby.delayVCHist.vnet_0::bucket_size            1                       # delay histogram for vnet_0
system.ruby.delayVCHist.vnet_0::max_bucket            9                       # delay histogram for vnet_0
system.ruby.delayVCHist.vnet_0::samples           453                       # delay histogram for vnet_0
system.ruby.delayVCHist.vnet_0::mean         0.061810                       # delay histogram for vnet_0
system.ruby.delayVCHist.vnet_0::stdev        0.475667                       # delay histogram for vnet_0
system.ruby.delayVCHist.vnet_0           |         445     98.23%     98.23% |           0      0.00%     98.23% |           2      0.44%     98.68% |           0      0.00%     98.68% |           6      1.32%    100.00% |           0      0.00%    100.00% |           0      0.00%    100.00% |           0      0.00%    100.00% |           0      0.00%    100.00% |           0      0.00%    100.00% # delay histogram for vnet_0
system.ruby.delayVCHist.vnet_0::total             453                       # delay histogram for vnet_0
system.ruby.delayVCHist.vnet_1::bucket_size            1                       # delay histogram for vnet_1
system.ruby.delayVCHist.vnet_1::max_bucket            9                       # delay histogram for vnet_1
system.ruby.delayVCHist.vnet_1::samples           636                       # delay histogram for vnet_1
system.ruby.delayVCHist.vnet_1           |         636    100.00%    100.00% |           0      0.00%    100.00% |           0      0.00%    100.00% |           0      0.00%    100.00% |           0      0.00%    100.00% |           0      0.00%    100.00% |           0      0.00%    100.00% |           0      0.00%    100.00% |           0      0.00%    100.00% |           0      0.00%    100.00% # delay histogram for vnet_1
system.ruby.delayVCHist.vnet_1::total             636                       # delay histogram for vnet_1
system.ruby.dir_cntrl0.requestToDir.avg_buf_msgs     0.012247                       # Average number of messages in buffer
system.ruby.dir_cntrl0.requestToDir.avg_stall_time  4002.971410                       # Average number of cycles messages are stalled in this MB
system.ruby.dir_cntrl0.responseFromDir.avg_buf_msgs     0.012247                       # Average number of messages in buffer
system.ruby.dir_cntrl0.responseFromDir.avg_stall_time   496.807742                       # Average number of cycles messages are stalled in this MB
system.ruby.dir_cntrl0.responseFromMemory.avg_buf_msgs     0.012930                       # Average number of messages in buffer
system.ruby.dir_cntrl0.responseFromMemory.avg_stall_time   496.827819                       # Average number of cycles messages are stalled in this MB
system.ruby.hit_latency_hist_seqr::bucket_size            1                      
system.ruby.hit_latency_hist_seqr::max_bucket            9                      
system.ruby.hit_latency_hist_seqr::samples         1892                      
system.ruby.hit_latency_hist_seqr        |        1892    100.00%    100.00% |           0      0.00%    100.00% |           0      0.00%    100.00% |           0      0.00%    100.00% |           0      0.00%    100.00% |           0      0.00%    100.00% |           0      0.00%    100.00% |           0      0.00%    100.00% |           0      0.00%    100.00% |           0      0.00%    100.00%
system.ruby.hit_latency_hist_seqr::total         1892                      
system.ruby.l1_cntrl0.L1Dcache.demand_accesses         1063                       # Number of cache demand accesses
system.ruby.l1_cntrl0.L1Dcache.demand_hits          935                       # Number of cache demand hits
system.ruby.l1_cntrl0.L1Dcache.demand_misses          128                       # Number of cache demand misses
system.ruby.l1_cntrl0.L1Dcache.read_accesses            0                       # Number of cache read accesses
system.ruby.l1_cntrl0.L1Dcache.read_hits            0                       # Number of cache read hits
system.ruby.l1_cntrl0.L1Dcache.read_misses            0                       # Number of cache read misses
system.ruby.l1_cntrl0.L1Dcache.write_accesses            0                       # Number of cache write accesses
system.ruby.l1_cntrl0.L1Dcache.write_hits            0                       # Number of cache write hits
system.ruby.l1_cntrl0.L1Dcache.write_misses            0                       # Number of cache write misses
system.ruby.l1_cntrl0.L1Icache.demand_accesses         1158                       # Number of cache demand accesses
system.ruby.l1_cntrl0.L1Icache.demand_hits          957                       # Number of cache demand hits
system.ruby.l1_cntrl0.L1Icache.demand_misses          201                       # Number of cache demand misses
system.ruby.l1_cntrl0.L1Icache.read_accesses            0                       # Number of cache read accesses
system.ruby.l1_cntrl0.L1Icache.read_hits            0                       # Number of cache read hits
system.ruby.l1_cntrl0.L1Icache.read_misses            0                       # Number of cache read misses
system.ruby.l1_cntrl0.L1Icache.write_accesses            0                       # Number of cache write accesses
system.ruby.l1_cntrl0.L1Icache.write_hits            0                       # Number of cache write hits
system.ruby.l1_cntrl0.L1Icache.write_misses            0                       # Number of cache write misses
system.ruby.l1_cntrl0.fully_busy_cycles            18                       # cycles for which number of transistions == max transitions
system.ruby.l1_cntrl0.mandatoryQueue.avg_buf_msgs     0.090548                       # Average number of messages in buffer
system.ruby.l1_cntrl0.mandatoryQueue.avg_stall_time   515.680211                       # Average number of cycles messages are stalled in this MB
system.ruby.l1_cntrl0.mandatoryQueue.num_msg_stalls            2                       # Number of times messages were stalled
system.ruby.l1_cntrl0.prefetcher.allocated_streams            0                       # number of streams allocated for prefetching
system.ruby.l1_cntrl0.prefetcher.dropped_prefetches            0                       # number of prefetch requests dropped
system.ruby.l1_cntrl0.prefetcher.hits               0                       # number of prefetched blocks accessed
system.ruby.l1_cntrl0.prefetcher.miss_observed            0                       # number of misses observed
system.ruby.l1_cntrl0.prefetcher.misses_on_prefetched_blocks            0                       # number of misses for blocks that were prefetched, yet missed
system.ruby.l1_cntrl0.prefetcher.pages_crossed            0                       # number of prefetches across pages
system.ruby.l1_cntrl0.prefetcher.partial_hits            0                       # number of misses observed for a block being prefetched
system.ruby.l1_cntrl0.prefetcher.prefetches_accepted            0                       # number of prefetch requests accepted
system.ruby.l1_cntrl0.prefetcher.prefetches_requested            0                       # number of prefetch requests made
system.ruby.l1_cntrl0.requestFromL1Cache.avg_buf_msgs     0.026582                       # Average number of messages in buffer
system.ruby.l1_cntrl0.requestFromL1Cache.avg_stall_time   999.799229                       # Average number of cycles messages are stalled in this MB
system.ruby.l1_cntrl0.responseToL1Cache.avg_buf_msgs     0.013291                       # Average number of messages in buffer
system.ruby.l1_cntrl0.responseToL1Cache.avg_stall_time  3523.128813                       # Average number of cycles messages are stalled in this MB
system.ruby.l1_cntrl0.unblockFromL1Cache.avg_buf_msgs     0.004899                       # Average number of messages in buffer
system.ruby.l1_cntrl0.unblockFromL1Cache.avg_stall_time   490.985385                       # Average number of cycles messages are stalled in this MB
system.ruby.l1_cntrl_acc0.L1Dcache.demand_accesses            0                       # Number of cache demand accesses
system.ruby.l1_cntrl_acc0.L1Dcache.demand_hits            0                       # Number of cache demand hits
system.ruby.l1_cntrl_acc0.L1Dcache.demand_misses            0                       # Number of cache demand misses
system.ruby.l1_cntrl_acc0.L1Dcache.read_accesses            0                       # Number of cache read accesses
system.ruby.l1_cntrl_acc0.L1Dcache.read_hits            0                       # Number of cache read hits
system.ruby.l1_cntrl_acc0.L1Dcache.read_misses            0                       # Number of cache read misses
system.ruby.l1_cntrl_acc0.L1Dcache.write_accesses            0                       # Number of cache write accesses
system.ruby.l1_cntrl_acc0.L1Dcache.write_hits            0                       # Number of cache write hits
system.ruby.l1_cntrl_acc0.L1Dcache.write_misses            0                       # Number of cache write misses
system.ruby.l1_cntrl_acc0.L1Icache.demand_accesses            0                       # Number of cache demand accesses
system.ruby.l1_cntrl_acc0.L1Icache.demand_hits            0                       # Number of cache demand hits
system.ruby.l1_cntrl_acc0.L1Icache.demand_misses            0                       # Number of cache demand misses
system.ruby.l1_cntrl_acc0.L1Icache.read_accesses            0                       # Number of cache read accesses
system.ruby.l1_cntrl_acc0.L1Icache.read_hits            0                       # Number of cache read hits
system.ruby.l1_cntrl_acc0.L1Icache.read_misses            0                       # Number of cache read misses
system.ruby.l1_cntrl_acc0.L1Icache.write_accesses            0                       # Number of cache write accesses
system.ruby.l1_cntrl_acc0.L1Icache.write_hits            0                       # Number of cache write hits
system.ruby.l1_cntrl_acc0.L1Icache.write_misses            0                       # Number of cache write misses
system.ruby.l1_cntrl_acc0.prefetcher.allocated_streams            0                       # number of streams allocated for prefetching
system.ruby.l1_cntrl_acc0.prefetcher.dropped_prefetches            0                       # number of prefetch requests dropped
system.ruby.l1_cntrl_acc0.prefetcher.hits            0                       # number of prefetched blocks accessed
system.ruby.l1_cntrl_acc0.prefetcher.miss_observed            0                       # number of misses observed
system.ruby.l1_cntrl_acc0.prefetcher.misses_on_prefetched_blocks            0                       # number of misses for blocks that were prefetched, yet missed
system.ruby.l1_cntrl_acc0.prefetcher.pages_crossed            0                       # number of prefetches across pages
system.ruby.l1_cntrl_acc0.prefetcher.partial_hits            0                       # number of misses observed for a block being prefetched
system.ruby.l1_cntrl_acc0.prefetcher.prefetches_accepted            0                       # number of prefetch requests accepted
system.ruby.l1_cntrl_acc0.prefetcher.prefetches_requested            0                       # number of prefetch requests made
system.ruby.l2_cntrl0.DirRequestFromL2Cache.avg_buf_msgs     0.024494                       # Average number of messages in buffer
system.ruby.l2_cntrl0.DirRequestFromL2Cache.avg_stall_time   999.477996                       # Average number of cycles messages are stalled in this MB
system.ruby.l2_cntrl0.L1RequestFromL2Cache.avg_buf_msgs     0.000040                       # Average number of messages in buffer
system.ruby.l2_cntrl0.L1RequestFromL2Cache.avg_stall_time   144.896431                       # Average number of cycles messages are stalled in this MB
system.ruby.l2_cntrl0.L1RequestToL2Cache.avg_buf_msgs     0.013291                       # Average number of messages in buffer
system.ruby.l2_cntrl0.L1RequestToL2Cache.avg_stall_time  4018.491004                       # Average number of cycles messages are stalled in this MB
system.ruby.l2_cntrl0.L2cache.demand_accesses          329                       # Number of cache demand accesses
system.ruby.l2_cntrl0.L2cache.demand_hits           24                       # Number of cache demand hits
system.ruby.l2_cntrl0.L2cache.demand_misses          305                       # Number of cache demand misses
system.ruby.l2_cntrl0.L2cache.read_accesses          329                       # Number of cache read accesses
system.ruby.l2_cntrl0.L2cache.read_hits            24                       # Number of cache read hits
system.ruby.l2_cntrl0.L2cache.read_misses          305                       # Number of cache read misses
system.ruby.l2_cntrl0.L2cache.write_accesses            0                       # Number of cache write accesses
system.ruby.l2_cntrl0.L2cache.write_hits            0                       # Number of cache write hits
system.ruby.l2_cntrl0.L2cache.write_misses            0                       # Number of cache write misses
system.ruby.l2_cntrl0.responseFromL2Cache.avg_buf_msgs     0.014215                       # Average number of messages in buffer
system.ruby.l2_cntrl0.responseFromL2Cache.avg_stall_time   543.968837                       # Average number of cycles messages are stalled in this MB
system.ruby.l2_cntrl0.responseToL2Cache.avg_buf_msgs     0.012247                       # Average number of messages in buffer
system.ruby.l2_cntrl0.responseToL2Cache.avg_stall_time  3476.810956                       # Average number of cycles messages are stalled in this MB
system.ruby.l2_cntrl0.unblockToL2Cache.avg_buf_msgs     0.004899                       # Average number of messages in buffer
system.ruby.l2_cntrl0.unblockToL2Cache.avg_stall_time  3436.054454                       # Average number of cycles messages are stalled in this MB
system.ruby.latency_hist_seqr::bucket_size            1                      
system.ruby.latency_hist_seqr::max_bucket            9                      
system.ruby.latency_hist_seqr::samples           2221                      
system.ruby.latency_hist_seqr            |        2221    100.00%    100.00% |           0      0.00%    100.00% |           0      0.00%    100.00% |           0      0.00%    100.00% |           0      0.00%    100.00% |           0      0.00%    100.00% |           0      0.00%    100.00% |           0      0.00%    100.00% |           0      0.00%    100.00% |           0      0.00%    100.00%
system.ruby.latency_hist_seqr::total             2221                      
system.ruby.miss_latency_hist_seqr::bucket_size            1                      
system.ruby.miss_latency_hist_seqr::max_bucket            9                      
system.ruby.miss_latency_hist_seqr::samples          329                      
system.ruby.miss_latency_hist_seqr       |         329    100.00%    100.00% |           0      0.00%    100.00% |           0      0.00%    100.00% |           0      0.00%    100.00% |           0      0.00%    100.00% |           0      0.00%    100.00% |           0      0.00%    100.00% |           0      0.00%    100.00% |           0      0.00%    100.00% |           0      0.00%    100.00%
system.ruby.miss_latency_hist_seqr::total          329                      
system.ruby.network.int_link_buffers00.avg_buf_msgs     0.013291                       # Average number of messages in buffer
system.ruby.network.int_link_buffers00.avg_stall_time  1999.437841                       # Average number of cycles messages are stalled in this MB
system.ruby.network.int_link_buffers02.avg_buf_msgs     0.004899                       # Average number of messages in buffer
system.ruby.network.int_link_buffers02.avg_stall_time  1472.835691                       # Average number of cycles messages are stalled in this MB
system.ruby.network.int_link_buffers03.avg_buf_msgs     0.012247                       # Average number of messages in buffer
system.ruby.network.int_link_buffers03.avg_stall_time  2004.818503                       # Average number of cycles messages are stalled in this MB
system.ruby.network.int_link_buffers04.avg_buf_msgs     0.013291                       # Average number of messages in buffer
system.ruby.network.int_link_buffers04.avg_stall_time  1537.182779                       # Average number of cycles messages are stalled in this MB
system.ruby.network.int_link_buffers07.avg_buf_msgs     0.012247                       # Average number of messages in buffer
system.ruby.network.int_link_buffers07.avg_stall_time  1490.302763                       # Average number of cycles messages are stalled in this MB
system.ruby.network.int_link_buffers19.avg_buf_msgs     0.013291                       # Average number of messages in buffer
system.ruby.network.int_link_buffers19.avg_stall_time  2530.236104                       # Average number of cycles messages are stalled in this MB
system.ruby.network.int_link_buffers21.avg_buf_msgs     0.013291                       # Average number of messages in buffer
system.ruby.network.int_link_buffers21.avg_stall_time  3019.173625                       # Average number of cycles messages are stalled in this MB
system.ruby.network.int_link_buffers22.avg_buf_msgs     0.012247                       # Average number of messages in buffer
system.ruby.network.int_link_buffers22.avg_stall_time  2483.637168                       # Average number of cycles messages are stalled in this MB
system.ruby.network.int_link_buffers23.avg_buf_msgs     0.004899                       # Average number of messages in buffer
system.ruby.network.int_link_buffers23.avg_stall_time  2454.525381                       # Average number of cycles messages are stalled in this MB
system.ruby.network.int_link_buffers24.avg_buf_msgs     0.012247                       # Average number of messages in buffer
system.ruby.network.int_link_buffers24.avg_stall_time  3003.975265                       # Average number of cycles messages are stalled in this MB
system.ruby.network.msg_byte.Control            15216                      
system.ruby.network.msg_byte.Response_Control         3000                      
system.ruby.network.msg_byte.Response_Data        75960                      
system.ruby.network.msg_byte.Writeback_Control           24                      
system.ruby.network.msg_byte.Writeback_Data          120                      
system.ruby.network.msg_count.Control            1902                      
system.ruby.network.msg_count.Response_Control          375                      
system.ruby.network.msg_count.Response_Data         1899                      
system.ruby.network.msg_count.Writeback_Control            3                      
system.ruby.network.msg_count.Writeback_Data            3                      
system.ruby.network.routers0.msg_bytes.Control::0         2632                      
system.ruby.network.routers0.msg_bytes.Response_Control::1           24                      
system.ruby.network.routers0.msg_bytes.Response_Control::2          976                      
system.ruby.network.routers0.msg_bytes.Response_Data::1        13120                      
system.ruby.network.routers0.msg_bytes.Writeback_Control::0            8                      
system.ruby.network.routers0.msg_bytes.Writeback_Data::0           40                      
system.ruby.network.routers0.msg_count.Control::0          329                      
system.ruby.network.routers0.msg_count.Response_Control::1            3                      
system.ruby.network.routers0.msg_count.Response_Control::2          122                      
system.ruby.network.routers0.msg_count.Response_Data::1          328                      
system.ruby.network.routers0.msg_count.Writeback_Control::0            1                      
system.ruby.network.routers0.msg_count.Writeback_Data::0            1                      
system.ruby.network.routers0.percent_links_utilized     2.108095                      
system.ruby.network.routers0.port_buffers01.avg_buf_msgs     0.013291                       # Average number of messages in buffer
system.ruby.network.routers0.port_buffers01.avg_stall_time  3026.702536                       # Average number of cycles messages are stalled in this MB
system.ruby.network.routers0.port_buffers03.avg_buf_msgs     0.013291                       # Average number of messages in buffer
system.ruby.network.routers0.port_buffers03.avg_stall_time  1499.638612                       # Average number of cycles messages are stalled in this MB
system.ruby.network.routers0.port_buffers05.avg_buf_msgs     0.004899                       # Average number of messages in buffer
system.ruby.network.routers0.port_buffers05.avg_stall_time   981.930615                       # Average number of cycles messages are stalled in this MB
system.ruby.network.routers0.throttle0.link_utilization     3.298667                      
system.ruby.network.routers0.throttle0.msg_bytes.Response_Control::1           24                      
system.ruby.network.routers0.throttle0.msg_bytes.Response_Data::1        13120                      
system.ruby.network.routers0.throttle0.msg_count.Response_Control::1            3                      
system.ruby.network.routers0.throttle0.msg_count.Response_Data::1          328                      
system.ruby.network.routers0.throttle1.link_utilization     0.917523                      
system.ruby.network.routers0.throttle1.msg_bytes.Control::0         2632                      
system.ruby.network.routers0.throttle1.msg_bytes.Response_Control::2          976                      
system.ruby.network.routers0.throttle1.msg_bytes.Writeback_Control::0            8                      
system.ruby.network.routers0.throttle1.msg_bytes.Writeback_Data::0           40                      
system.ruby.network.routers0.throttle1.msg_count.Control::0          329                      
system.ruby.network.routers0.throttle1.msg_count.Response_Control::2          122                      
system.ruby.network.routers0.throttle1.msg_count.Writeback_Control::0            1                      
system.ruby.network.routers0.throttle1.msg_count.Writeback_Data::0            1                      
system.ruby.network.routers1.msg_bytes.Control::0         5072                      
system.ruby.network.routers1.msg_bytes.Response_Control::1           24                      
system.ruby.network.routers1.msg_bytes.Response_Control::2          976                      
system.ruby.network.routers1.msg_bytes.Response_Data::1        25320                      
system.ruby.network.routers1.msg_bytes.Writeback_Control::0            8                      
system.ruby.network.routers1.msg_bytes.Writeback_Data::0           40                      
system.ruby.network.routers1.msg_count.Control::0          634                      
system.ruby.network.routers1.msg_count.Response_Control::1            3                      
system.ruby.network.routers1.msg_count.Response_Control::2          122                      
system.ruby.network.routers1.msg_count.Response_Data::1          633                      
system.ruby.network.routers1.msg_count.Writeback_Control::0            1                      
system.ruby.network.routers1.msg_count.Writeback_Data::0            1                      
system.ruby.network.routers1.percent_links_utilized     3.945149                      
system.ruby.network.routers1.port_buffers00.avg_buf_msgs     0.013291                       # Average number of messages in buffer
system.ruby.network.routers1.port_buffers00.avg_stall_time  3518.852392                       # Average number of cycles messages are stalled in this MB
system.ruby.network.routers1.port_buffers01.avg_buf_msgs     0.012247                       # Average number of messages in buffer
system.ruby.network.routers1.port_buffers01.avg_stall_time  2980.244139                       # Average number of cycles messages are stalled in this MB
system.ruby.network.routers1.port_buffers02.avg_buf_msgs     0.004899                       # Average number of messages in buffer
system.ruby.network.routers1.port_buffers02.avg_stall_time  2945.309995                       # Average number of cycles messages are stalled in this MB
system.ruby.network.routers1.port_buffers03.avg_buf_msgs     0.012729                       # Average number of messages in buffer
system.ruby.network.routers1.port_buffers03.avg_stall_time  1505.179890                       # Average number of cycles messages are stalled in this MB
system.ruby.network.routers1.port_buffers04.avg_buf_msgs     0.013291                       # Average number of messages in buffer
system.ruby.network.routers1.port_buffers04.avg_stall_time  1040.595885                       # Average number of cycles messages are stalled in this MB
system.ruby.network.routers1.throttle0.link_utilization     3.979280                      
system.ruby.network.routers1.throttle0.msg_bytes.Control::0         2632                      
system.ruby.network.routers1.throttle0.msg_bytes.Response_Control::2          976                      
system.ruby.network.routers1.throttle0.msg_bytes.Response_Data::1        12200                      
system.ruby.network.routers1.throttle0.msg_bytes.Writeback_Control::0            8                      
system.ruby.network.routers1.throttle0.msg_bytes.Writeback_Data::0           40                      
system.ruby.network.routers1.throttle0.msg_count.Control::0          329                      
system.ruby.network.routers1.throttle0.msg_count.Response_Control::2          122                      
system.ruby.network.routers1.throttle0.msg_count.Response_Data::1          305                      
system.ruby.network.routers1.throttle0.msg_count.Writeback_Control::0            1                      
system.ruby.network.routers1.throttle0.msg_count.Writeback_Data::0            1                      
system.ruby.network.routers1.throttle1.link_utilization     3.911018                      
system.ruby.network.routers1.throttle1.msg_bytes.Control::0         2440                      
system.ruby.network.routers1.throttle1.msg_bytes.Response_Control::1           24                      
system.ruby.network.routers1.throttle1.msg_bytes.Response_Data::1        13120                      
system.ruby.network.routers1.throttle1.msg_count.Control::0          305                      
system.ruby.network.routers1.throttle1.msg_count.Response_Control::1            3                      
system.ruby.network.routers1.throttle1.msg_count.Response_Data::1          328                      
system.ruby.network.routers2.msg_bytes.Control::0         2440                      
system.ruby.network.routers2.msg_bytes.Response_Data::1        12200                      
system.ruby.network.routers2.msg_count.Control::0          305                      
system.ruby.network.routers2.msg_count.Response_Data::1          305                      
system.ruby.network.routers2.percent_links_utilized     1.837054                      
system.ruby.network.routers2.port_buffers00.avg_buf_msgs     0.012247                       # Average number of messages in buffer
system.ruby.network.routers2.port_buffers00.avg_stall_time  3503.493414                       # Average number of cycles messages are stalled in this MB
system.ruby.network.routers2.port_buffers03.avg_buf_msgs     0.012247                       # Average number of messages in buffer
system.ruby.network.routers2.port_buffers03.avg_stall_time   993.575330                       # Average number of cycles messages are stalled in this MB
system.ruby.network.routers2.throttle0.link_utilization     0.612351                      
system.ruby.network.routers2.throttle0.msg_bytes.Control::0         2440                      
system.ruby.network.routers2.throttle0.msg_count.Control::0          305                      
system.ruby.network.routers2.throttle1.link_utilization     3.061757                      
system.ruby.network.routers2.throttle1.msg_bytes.Response_Data::1        12200                      
system.ruby.network.routers2.throttle1.msg_count.Response_Data::1          305                      
system.ruby.network.routers3.percent_links_utilized            0                      
system.ruby.network.routers3.throttle0.link_utilization            0                      
system.ruby.network.routers3.throttle1.link_utilization            0                      
system.ruby.network.routers4.percent_links_utilized            0                      
system.ruby.network.routers4.throttle0.link_utilization            0                      
system.ruby.network.routers4.throttle1.link_utilization            0                      
system.ruby.network.routers5.percent_links_utilized            0                      
system.ruby.network.routers5.throttle0.link_utilization            0                      
system.ruby.network.routers5.throttle1.link_utilization            0                      
system.ruby.network.routers6.msg_bytes.Control::0         5072                      
system.ruby.network.routers6.msg_bytes.Response_Control::1           24                      
system.ruby.network.routers6.msg_bytes.Response_Control::2          976                      
system.ruby.network.routers6.msg_bytes.Response_Data::1        25320                      
system.ruby.network.routers6.msg_bytes.Writeback_Control::0            8                      
system.ruby.network.routers6.msg_bytes.Writeback_Data::0           40                      
system.ruby.network.routers6.msg_count.Control::0          634                      
system.ruby.network.routers6.msg_count.Response_Control::1            3                      
system.ruby.network.routers6.msg_count.Response_Control::2          122                      
system.ruby.network.routers6.msg_count.Response_Data::1          633                      
system.ruby.network.routers6.msg_count.Writeback_Control::0            1                      
system.ruby.network.routers6.msg_count.Writeback_Data::0            1                      
system.ruby.network.routers6.percent_links_utilized     1.315050                      
system.ruby.network.routers6.port_buffers01.avg_buf_msgs     0.013291                       # Average number of messages in buffer
system.ruby.network.routers6.port_buffers01.avg_stall_time  2033.729519                       # Average number of cycles messages are stalled in this MB
system.ruby.network.routers6.port_buffers03.avg_buf_msgs     0.013853                       # Average number of messages in buffer
system.ruby.network.routers6.port_buffers03.avg_stall_time  2519.454705                       # Average number of cycles messages are stalled in this MB
system.ruby.network.routers6.port_buffers04.avg_buf_msgs     0.012247                       # Average number of messages in buffer
[...]
system.mem_ctrls.rdQLenPdf::14                      0                       # What read queue length does an incoming req see
system.mem_ctrls.rdQLenPdf::15                      0                       # What read queue length does an incoming req see
system.mem_ctrls.rdQLenPdf::16                      0                       # What read queue length does an incoming req see
system.mem_ctrls.rdQLenPdf::17                      0                       # What read queue length does an incoming req see
system.mem_ctrls.rdQLenPdf::18                      0                       # What read queue length does an incoming req see
system.mem_ctrls.rdQLenPdf::19                      0                       # What read queue length does an incoming req see
system.mem_ctrls.rdQLenPdf::20                      0                       # What read queue length does an incoming req see
system.mem_ctrls.rdQLenPdf::21                      0                       # What read queue length does an incoming req see
system.mem_ctrls.rdQLenPdf::22                      0                       # What read queue length does an incoming req see
system.mem_ctrls.rdQLenPdf::23                      0                       # What read queue length does an incoming req see
system.mem_ctrls.rdQLenPdf::24                      0                       # What read queue length does an incoming req see
system.mem_ctrls.rdQLenPdf::25                      0                       # What read queue length does an incoming req see
system.mem_ctrls.rdQLenPdf::26                      0                       # What read queue length does an incoming req see
system.mem_ctrls.rdQLenPdf::27                      0                       # What read queue length does an incoming req see
system.mem_ctrls.rdQLenPdf::28                      0                       # What read queue length does an incoming req see
system.mem_ctrls.rdQLenPdf::29                      0                       # What read queue length does an incoming req see
system.mem_ctrls.rdQLenPdf::30                      0                       # What read queue length does an incoming req see
system.mem_ctrls.rdQLenPdf::31                      0                       # What read queue length does an incoming req see
system.mem_ctrls.wrQLenPdf::0                       0                       # What write queue length does an incoming req see
system.mem_ctrls.wrQLenPdf::1                       0                       # What write queue length does an incoming req see
system.mem_ctrls.wrQLenPdf::2                       0                       # What write queue length does an incoming req see
system.mem_ctrls.wrQLenPdf::3                       0                       # What write queue length does an incoming req see
system.mem_ctrls.wrQLenPdf::4                       0                       # What write queue length does an incoming req see
system.mem_ctrls.wrQLenPdf::5                       0                       # What write queue length does an incoming req see
system.mem_ctrls.wrQLenPdf::6                       0                       # What write queue length does an incoming req see
system.mem_ctrls.wrQLenPdf::7                       0                       # What write queue length does an incoming req see
system.mem_ctrls.wrQLenPdf::8                       0                       # What write queue length does an incoming req see
system.mem_ctrls.wrQLenPdf::9                       0                       # What write queue length does an incoming req see
system.mem_ctrls.wrQLenPdf::10                      0                       # What write queue length does an incoming req see
system.mem_ctrls.wrQLenPdf::11                      0                       # What write queue length does an incoming req see
system.mem_ctrls.wrQLenPdf::12                      0                       # What write queue length does an incoming req see
system.mem_ctrls.wrQLenPdf::13                      0                       # What write queue length does an incoming req see
system.mem_ctrls.wrQLenPdf::14                      0                       # What write queue length does an incoming req see
system.mem_ctrls.wrQLenPdf::15                      0                       # What write queue length does an incoming req see
system.mem_ctrls.wrQLenPdf::16                      0                       # What write queue length does an incoming req see
system.mem_ctrls.wrQLenPdf::17                      0                       # What write queue length does an incoming req see
system.mem_ctrls.wrQLenPdf::18                      0                       # What write queue length does an incoming req see
system.mem_ctrls.wrQLenPdf::19                      0                       # What write queue length does an incoming req see
system.mem_ctrls.wrQLenPdf::20                      0                       # What write queue length does an incoming req see
system.mem_ctrls.wrQLenPdf::21                      0                       # What write queue length does an incoming req see
system.mem_ctrls.wrQLenPdf::22                      0                       # What write queue length does an incoming req see
system.mem_ctrls.wrQLenPdf::23                      0                       # What write queue length does an incoming req see
system.mem_ctrls.wrQLenPdf::24                      0                       # What write queue length does an incoming req see
system.mem_ctrls.wrQLenPdf::25                      0                       # What write queue length does an incoming req see
system.mem_ctrls.wrQLenPdf::26                      0                       # What write queue length does an incoming req see
system.mem_ctrls.wrQLenPdf::27                      0                       # What write queue length does an incoming req see
system.mem_ctrls.wrQLenPdf::28                      0                       # What write queue length does an incoming req see
system.mem_ctrls.wrQLenPdf::29                      0                       # What write queue length does an incoming req see
system.mem_ctrls.wrQLenPdf::30                      0                       # What write queue length does an incoming req see
system.mem_ctrls.wrQLenPdf::31                      0                       # What write queue length does an incoming req see
system.mem_ctrls.wrQLenPdf::32                      0                       # What write queue length does an incoming req see
system.mem_ctrls.wrQLenPdf::33                      0                       # What write queue length does an incoming req see
system.mem_ctrls.wrQLenPdf::34                      0                       # What write queue length does an incoming req see
system.mem_ctrls.wrQLenPdf::35                      0                       # What write queue length does an incoming req see
system.mem_ctrls.wrQLenPdf::36                      0                       # What write queue length does an incoming req see
system.mem_ctrls.wrQLenPdf::37                      0                       # What write queue length does an incoming req see
system.mem_ctrls.wrQLenPdf::38                      0                       # What write queue length does an incoming req see
system.mem_ctrls.wrQLenPdf::39                      0                       # What write queue length does an incoming req see
system.mem_ctrls.wrQLenPdf::40                      0                       # What write queue length does an incoming req see
system.mem_ctrls.wrQLenPdf::41                      0                       # What write queue length does an incoming req see
system.mem_ctrls.wrQLenPdf::42                      0                       # What write queue length does an incoming req see
system.mem_ctrls.wrQLenPdf::43                      0                       # What write queue length does an incoming req see
system.mem_ctrls.wrQLenPdf::44                      0                       # What write queue length does an incoming req see
system.mem_ctrls.wrQLenPdf::45                      0                       # What write queue length does an incoming req see
system.mem_ctrls.wrQLenPdf::46                      0                       # What write queue length does an incoming req see
system.mem_ctrls.wrQLenPdf::47                      0                       # What write queue length does an incoming req see
system.mem_ctrls.wrQLenPdf::48                      0                       # What write queue length does an incoming req see
system.mem_ctrls.wrQLenPdf::49                      0                       # What write queue length does an incoming req see
system.mem_ctrls.wrQLenPdf::50                      0                       # What write queue length does an incoming req see
system.mem_ctrls.wrQLenPdf::51                      0                       # What write queue length does an incoming req see
system.mem_ctrls.wrQLenPdf::52                      0                       # What write queue length does an incoming req see
system.mem_ctrls.wrQLenPdf::53                      0                       # What write queue length does an incoming req see
system.mem_ctrls.wrQLenPdf::54                      0                       # What write queue length does an incoming req see
system.mem_ctrls.wrQLenPdf::55                      0                       # What write queue length does an incoming req see
system.mem_ctrls.wrQLenPdf::56                      0                       # What write queue length does an incoming req see
system.mem_ctrls.wrQLenPdf::57                      0                       # What write queue length does an incoming req see
system.mem_ctrls.wrQLenPdf::58                      0                       # What write queue length does an incoming req see
system.mem_ctrls.wrQLenPdf::59                      0                       # What write queue length does an incoming req see
system.mem_ctrls.wrQLenPdf::60                      0                       # What write queue length does an incoming req see
system.mem_ctrls.wrQLenPdf::61                      0                       # What write queue length does an incoming req see
system.mem_ctrls.wrQLenPdf::62                      0                       # What write queue length does an incoming req see
system.mem_ctrls.wrQLenPdf::63                      0                       # What write queue length does an incoming req see
system.mem_ctrls.bytesPerActivate::samples          730                       # Bytes accessed per row activation
system.mem_ctrls.bytesPerActivate::mean    173.413699                       # Bytes accessed per row activation
system.mem_ctrls.bytesPerActivate::gmean   119.400953                       # Bytes accessed per row activation
system.mem_ctrls.bytesPerActivate::stdev   197.075063                       # Bytes accessed per row activation
system.mem_ctrls.bytesPerActivate::0-127          373     51.10%     51.10% # Bytes accessed per row activation
system.mem_ctrls.bytesPerActivate::128-255          203     27.81%     78.90% # Bytes accessed per row activation
system.mem_ctrls.bytesPerActivate::256-383           73     10.00%     88.90% # Bytes accessed per row activation
system.mem_ctrls.bytesPerActivate::384-511           27      3.70%     92.60% # Bytes accessed per row activation
system.mem_ctrls.bytesPerActivate::512-639           18      2.47%     95.07% # Bytes accessed per row activation
system.mem_ctrls.bytesPerActivate::640-767            9      1.23%     96.30% # Bytes accessed per row activation
system.mem_ctrls.bytesPerActivate::768-895            7      0.96%     97.26% # Bytes accessed per row activation
system.mem_ctrls.bytesPerActivate::896-1023            6      0.82%     98.08% # Bytes accessed per row activation
system.mem_ctrls.bytesPerActivate::1024-1151           14      1.92%    100.00% # Bytes accessed per row activation
system.mem_ctrls.bytesPerActivate::total          730                       # Bytes accessed per row activation
system.mem_ctrls.bytesReadDRAM                 127744                       # Total number of bytes read from DRAM
system.mem_ctrls.bytesReadWrQ                     192                       # Total number of bytes read from write queue
system.mem_ctrls.bytesWritten                       0                       # Total number of bytes written to DRAM
system.mem_ctrls.bytesReadSys                   63904                       # Total read bytes from the system interface side
system.mem_ctrls.bytesWrittenSys                    0                       # Total written bytes from the system interface side
system.mem_ctrls.avgRdBW                       982.57                       # Average DRAM read bandwidth in MiByte/s
system.mem_ctrls.avgWrBW                         0.00                       # Average achieved write bandwidth in MiByte/s
system.mem_ctrls.avgRdBWSys                    491.53                       # Average system read bandwidth in MiByte/s
system.mem_ctrls.avgWrBWSys                      0.00                       # Average system write bandwidth in MiByte/s
system.mem_ctrls.peakBW                      12800.00                       # Theoretical peak bandwidth in MiByte/s
system.mem_ctrls.busUtil                         7.68                       # Data bus utilization in percentage
system.mem_ctrls.busUtilRead                     7.68                       # Data bus utilization in percentage for reads
system.mem_ctrls.busUtilWrite                    0.00                       # Data bus utilization in percentage for writes
system.mem_ctrls.totGap                     130030000                       # Total gap between requests
system.mem_ctrls.avgGap                      65112.67                       # Average gap between requests
system.mem_ctrls.masterReadBytes::.ruby.dir_cntrl0        63872                       # Per-master bytes read from memory
system.mem_ctrls.masterReadRate::.ruby.dir_cntrl0 491285285.747250199318                       # Per-master bytes read from memory rate (Bytes/sec)
system.mem_ctrls.masterReadAccesses::.ruby.dir_cntrl0         1997                       # Per-master read serviced memory accesses
system.mem_ctrls.masterReadTotalLat::.ruby.dir_cntrl0     82158221                       # Per-master read total memory access latency
system.mem_ctrls.masterReadAvgLat::.ruby.dir_cntrl0     41140.82                       # Per-master read average memory access latency
system.mem_ctrls.pageHitRate                    63.19                       # Row buffer hit rate, read and write combined
system.mem_ctrls.rank1.actEnergy         1056597.600000                       # Energy for activate commands per rank (pJ)
system.mem_ctrls.rank1.preEnergy         508569.600000                       # Energy for precharge commands per rank (pJ)
system.mem_ctrls.rank1.readEnergy             4690686                       # Energy for read commands per rank (pJ)
system.mem_ctrls.rank1.writeEnergy                  0                       # Energy for write commands per rank (pJ)
system.mem_ctrls.rank1.refreshEnergy     2568693.600000                       # Energy for refresh commands per rank (pJ)
system.mem_ctrls.rank1.actBackEnergy     11668672.500000                       # Energy for active background per rank (pJ)
system.mem_ctrls.rank1.preBackEnergy     759979.800000                       # Energy for precharge background per rank (pJ)
system.mem_ctrls.rank1.actPowerDownEnergy            0                       # Energy for active power-down per rank (pJ)
system.mem_ctrls.rank1.prePowerDownEnergy            0                       # Energy for precharge power-down per rank (pJ)
system.mem_ctrls.rank1.selfRefreshEnergy            0                       # Energy for self refresh per rank (pJ)
system.mem_ctrls.rank1.totalEnergy       21253199.100000                       # Total energy per rank (pJ)
system.mem_ctrls.rank1.averagePower        163.473572                       # Core power per rank (mW)
system.mem_ctrls.rank1.totalIdleTime                0                       # Total Idle time Per DRAM Rank
system.mem_ctrls.rank1.memoryStateTime::IDLE      7657000                       # Time in different power states
system.mem_ctrls.rank1.memoryStateTime::REF      6025000                       # Time in different power states
system.mem_ctrls.rank1.memoryStateTime::SREF            0                       # Time in different power states
system.mem_ctrls.rank1.memoryStateTime::PRE_PDN            0                       # Time in different power states
system.mem_ctrls.rank1.memoryStateTime::ACT    116328000                       # Time in different power states
system.mem_ctrls.rank1.memoryStateTime::ACT_PDN            0                       # Time in different power states
system.mem_ctrls.rank0.actEnergy         1178045.600000                       # Energy for activate commands per rank (pJ)
system.mem_ctrls.rank0.preEnergy         570662.400000                       # Energy for precharge commands per rank (pJ)
system.mem_ctrls.rank0.readEnergy        5452986.000000                       # Energy for read commands per rank (pJ)
system.mem_ctrls.rank0.writeEnergy                  0                       # Energy for write commands per rank (pJ)
system.mem_ctrls.rank0.refreshEnergy     2568693.600000                       # Energy for refresh commands per rank (pJ)
system.mem_ctrls.rank0.actBackEnergy     11462275.500000                       # Energy for active background per rank (pJ)
system.mem_ctrls.rank0.preBackEnergy     938503.800000                       # Energy for precharge background per rank (pJ)
system.mem_ctrls.rank0.actPowerDownEnergy            0                       # Energy for active power-down per rank (pJ)
system.mem_ctrls.rank0.prePowerDownEnergy            0                       # Energy for precharge power-down per rank (pJ)
system.mem_ctrls.rank0.selfRefreshEnergy            0                       # Energy for self refresh per rank (pJ)
system.mem_ctrls.rank0.totalEnergy       22171166.900000                       # Total energy per rank (pJ)
system.mem_ctrls.rank0.averagePower        170.534320                       # Core power per rank (mW)
system.mem_ctrls.rank0.totalIdleTime                0                       # Total Idle time Per DRAM Rank
system.mem_ctrls.rank0.memoryStateTime::IDLE      9935000                       # Time in different power states
system.mem_ctrls.rank0.memoryStateTime::REF      6025000                       # Time in different power states
system.mem_ctrls.rank0.memoryStateTime::SREF            0                       # Time in different power states
system.mem_ctrls.rank0.memoryStateTime::PRE_PDN            0                       # Time in different power states
system.mem_ctrls.rank0.memoryStateTime::ACT    114050000                       # Time in different power states
system.mem_ctrls.rank0.memoryStateTime::ACT_PDN            0                       # Time in different power states
system.cpu_clk_domain.clock                       400                       # Clock period in ticks
system.cpu.numPwrStateTransitions                   2                       # Number of power state transitions
system.cpu.pwrStateResidencyTicks::ON     23419289000                       # Cumulative time (in ticks) in various power states
system.cpu.pwrStateResidencyTicks::OFF      343853000                       # Cumulative time (in ticks) in various power states
system.cpu.dtb.walker.pwrStateResidencyTicks::UNDEFINED  23763142000                       # Cumulative time (in ticks) in various power states
system.cpu.interrupts.clk_domain.clock          16000                       # Clock period in ticks
system.cpu.itb.walker.pwrStateResidencyTicks::UNDEFINED  23763142000                       # Cumulative time (in ticks) in various power states

---------- End Simulation Statistics   ----------
